/*---------------------------------------------------------------------------*\
| =========                 |                                                 |
| \\      /  F ield         | OpenFOAM: The Open Source CFD Toolbox           |
|  \\    /   O peration     | Version:  2.1.0                                 |
|   \\  /    A nd           | Web:      www.OpenFOAM.org                      |
|    \\/     M anipulation  |                                                 |
\*---------------------------------------------------------------------------*/
Build  : 2.1.0-0bc225064152
Exec   : simpleFoam
Date   : Jul 02 2012
Time   : 10:16:13
Host   : "tomas-ThinkPad-T420"
PID    : 16653
Case   : /home/tomas/OpenFOAM/tomas-2.1.0/run/Examples/FluentToFoam_steady
nProcs : 1
sigFpe : Enabling floating point exception trapping (FOAM_SIGFPE).
fileModificationChecking : Monitoring run-time modified files using timeStampMaster
allowSystemOperations : Disallowing user-supplied system call operations

// * * * * * * * * * * * * * * * * * * * * * * * * * * * * * * * * * * * * * //
Create time

Create mesh for time = 0

Reading field p

Reading field U

Reading/calculating face flux field phi

Selecting incompressible transport model Newtonian
Selecting RAS turbulence model laminar
No field sources present


SIMPLE: no convergence criteria found. Calculations will run for 1000 steps.


Starting time loop

Time = 1

GAMG:  Solving for Ux, Initial residual = 1, Final residual = 2.62894e-06, No Iterations 4
GAMG:  Solving for Uy, Initial residual = 1, Final residual = 3.94261e-06, No Iterations 4
GAMG:  Solving for Uz, Initial residual = 1, Final residual = 1.73809e-06, No Iterations 4
GAMG:  Solving for p, Initial residual = 1, Final residual = 6.40807e-06, No Iterations 20
time step continuity errors : sum local = 1.24938e-05, global = -1.01767e-06, cumulative = -1.01767e-06
ExecutionTime = 3.16 s  ClockTime = 3 s

Time = 2

GAMG:  Solving for Ux, Initial residual = 0.382313, Final residual = 1.81004e-06, No Iterations 5
GAMG:  Solving for Uy, Initial residual = 0.362562, Final residual = 1.84206e-06, No Iterations 5
GAMG:  Solving for Uz, Initial residual = 0.445302, Final residual = 3.09874e-06, No Iterations 5
GAMG:  Solving for p, Initial residual = 0.296204, Final residual = 4.38059e-06, No Iterations 24
time step continuity errors : sum local = 0.000193106, global = -1.98906e-05, cumulative = -2.09083e-05
ExecutionTime = 5.8 s  ClockTime = 6 s

Time = 3

GAMG:  Solving for Ux, Initial residual = 0.357525, Final residual = 2.97658e-06, No Iterations 4
GAMG:  Solving for Uy, Initial residual = 0.376412, Final residual = 2.60023e-06, No Iterations 4
GAMG:  Solving for Uz, Initial residual = 0.155708, Final residual = 7.99519e-06, No Iterations 4
GAMG:  Solving for p, Initial residual = 0.190627, Final residual = 8.87589e-06, No Iterations 18
time step continuity errors : sum local = 0.00101288, global = 0.000153442, cumulative = 0.000132534
ExecutionTime = 8.08 s  ClockTime = 8 s

Time = 4

GAMG:  Solving for Ux, Initial residual = 0.130499, Final residual = 1.73575e-06, No Iterations 4
GAMG:  Solving for Uy, Initial residual = 0.133489, Final residual = 1.50345e-06, No Iterations 4
GAMG:  Solving for Uz, Initial residual = 0.232929, Final residual = 1.32228e-06, No Iterations 5
GAMG:  Solving for p, Initial residual = 0.0952888, Final residual = 6.05438e-06, No Iterations 22
time step continuity errors : sum local = 0.00038289, global = 5.74881e-05, cumulative = 0.000190022
ExecutionTime = 10.79 s  ClockTime = 11 s

Time = 5

GAMG:  Solving for Ux, Initial residual = 0.111735, Final residual = 2.77565e-06, No Iterations 4
GAMG:  Solving for Uy, Initial residual = 0.0999726, Final residual = 2.18036e-06, No Iterations 4
GAMG:  Solving for Uz, Initial residual = 0.425102, Final residual = 2.75929e-06, No Iterations 5
GAMG:  Solving for p, Initial residual = 0.431276, Final residual = 7.81476e-06, No Iterations 16
time step continuity errors : sum local = 0.000380089, global = 2.80384e-05, cumulative = 0.00021806
ExecutionTime = 13.33 s  ClockTime = 13 s

Time = 6

GAMG:  Solving for Ux, Initial residual = 0.206085, Final residual = 2.18179e-06, No Iterations 4
GAMG:  Solving for Uy, Initial residual = 0.197643, Final residual = 1.74745e-06, No Iterations 4
GAMG:  Solving for Uz, Initial residual = 0.173409, Final residual = 1.13861e-06, No Iterations 5
GAMG:  Solving for p, Initial residual = 0.299777, Final residual = 5.92466e-06, No Iterations 20
time step continuity errors : sum local = 0.000407728, global = -6.37299e-05, cumulative = 0.00015433
ExecutionTime = 15.87 s  ClockTime = 16 s

Time = 7

GAMG:  Solving for Ux, Initial residual = 0.103252, Final residual = 2.27662e-06, No Iterations 4
GAMG:  Solving for Uy, Initial residual = 0.0962745, Final residual = 1.84979e-06, No Iterations 4
GAMG:  Solving for Uz, Initial residual = 0.323525, Final residual = 1.55741e-06, No Iterations 5
GAMG:  Solving for p, Initial residual = 0.258292, Final residual = 6.27281e-06, No Iterations 22
time step continuity errors : sum local = 0.000169993, global = -2.45738e-05, cumulative = 0.000129756
ExecutionTime = 18.71 s  ClockTime = 19 s

Time = 8

GAMG:  Solving for Ux, Initial residual = 0.121886, Final residual = 2.49143e-06, No Iterations 4
GAMG:  Solving for Uy, Initial residual = 0.114893, Final residual = 1.90125e-06, No Iterations 4
GAMG:  Solving for Uz, Initial residual = 0.39871, Final residual = 2.28813e-06, No Iterations 5
GAMG:  Solving for p, Initial residual = 0.337743, Final residual = 9.96952e-06, No Iterations 14
time step continuity errors : sum local = 0.000325946, global = -2.36756e-05, cumulative = 0.000106081
ExecutionTime = 21.19 s  ClockTime = 21 s

Time = 9

GAMG:  Solving for Ux, Initial residual = 0.108545, Final residual = 1.03941e-06, No Iterations 4
GAMG:  Solving for Uy, Initial residual = 0.108641, Final residual = 8.71686e-06, No Iterations 3
GAMG:  Solving for Uz, Initial residual = 0.173963, Final residual = 9.26437e-06, No Iterations 4
GAMG:  Solving for p, Initial residual = 0.25799, Final residual = 9.57693e-06, No Iterations 21
time step continuity errors : sum local = 0.000353135, global = -6.10791e-05, cumulative = 4.50017e-05
ExecutionTime = 23.63 s  ClockTime = 24 s

Time = 10

GAMG:  Solving for Ux, Initial residual = 0.0288139, Final residual = 1.01865e-06, No Iterations 4
GAMG:  Solving for Uy, Initial residual = 0.0257103, Final residual = 8.22305e-06, No Iterations 3
GAMG:  Solving for Uz, Initial residual = 0.368865, Final residual = 1.87123e-06, No Iterations 5
GAMG:  Solving for p, Initial residual = 0.337707, Final residual = 6.92893e-06, No Iterations 22
time step continuity errors : sum local = 8.21394e-05, global = 7.2002e-06, cumulative = 5.22019e-05
ExecutionTime = 26.23 s  ClockTime = 26 s

Time = 11

GAMG:  Solving for Ux, Initial residual = 0.0642678, Final residual = 1.16851e-06, No Iterations 4
GAMG:  Solving for Uy, Initial residual = 0.0626007, Final residual = 9.28959e-06, No Iterations 3
GAMG:  Solving for Uz, Initial residual = 0.300898, Final residual = 1.77708e-06, No Iterations 5
GAMG:  Solving for p, Initial residual = 0.345488, Final residual = 6.4692e-06, No Iterations 16
time step continuity errors : sum local = 0.000143814, global = -2.08155e-05, cumulative = 3.13863e-05
ExecutionTime = 28.49 s  ClockTime = 28 s

Time = 12

GAMG:  Solving for Ux, Initial residual = 0.062105, Final residual = 6.27077e-06, No Iterations 3
GAMG:  Solving for Uy, Initial residual = 0.0628192, Final residual = 5.17136e-06, No Iterations 3
GAMG:  Solving for Uz, Initial residual = 0.169136, Final residual = 6.97026e-06, No Iterations 4
GAMG:  Solving for p, Initial residual = 0.269218, Final residual = 9.0101e-06, No Iterations 20
time step continuity errors : sum local = 0.000177075, global = -3.13498e-05, cumulative = 3.65283e-08
ExecutionTime = 30.86 s  ClockTime = 31 s

Time = 13

GAMG:  Solving for Ux, Initial residual = 0.0192238, Final residual = 7.92931e-06, No Iterations 3
GAMG:  Solving for Uy, Initial residual = 0.0175845, Final residual = 6.28752e-06, No Iterations 3
GAMG:  Solving for Uz, Initial residual = 0.350544, Final residual = 1.64067e-06, No Iterations 5
GAMG:  Solving for p, Initial residual = 0.505624, Final residual = 4.80547e-06, No Iterations 22
time step continuity errors : sum local = 2.61483e-05, global = -1.47046e-06, cumulative = -1.43393e-06
ExecutionTime = 33.41 s  ClockTime = 33 s

Time = 14

GAMG:  Solving for Ux, Initial residual = 0.0437125, Final residual = 6.88175e-06, No Iterations 3
GAMG:  Solving for Uy, Initial residual = 0.0413348, Final residual = 5.24927e-06, No Iterations 3
GAMG:  Solving for Uz, Initial residual = 0.225999, Final residual = 1.24636e-06, No Iterations 5
GAMG:  Solving for p, Initial residual = 0.29455, Final residual = 8.75481e-06, No Iterations 18
time step continuity errors : sum local = 0.00013377, global = -6.13606e-06, cumulative = -7.56999e-06
ExecutionTime = 35.77 s  ClockTime = 36 s

Time = 15

GAMG:  Solving for Ux, Initial residual = 0.0290053, Final residual = 3.36242e-06, No Iterations 3
GAMG:  Solving for Uy, Initial residual = 0.027204, Final residual = 2.61408e-06, No Iterations 3
GAMG:  Solving for Uz, Initial residual = 0.142581, Final residual = 5.60174e-06, No Iterations 4
GAMG:  Solving for p, Initial residual = 0.229403, Final residual = 6.12593e-06, No Iterations 22
time step continuity errors : sum local = 7.01423e-05, global = 1.37047e-05, cumulative = 6.13469e-06
ExecutionTime = 38.95 s  ClockTime = 39 s

Time = 16

GAMG:  Solving for Ux, Initial residual = 0.0129681, Final residual = 4.59438e-06, No Iterations 3
GAMG:  Solving for Uy, Initial residual = 0.0121796, Final residual = 3.58257e-06, No Iterations 3
GAMG:  Solving for Uz, Initial residual = 0.248396, Final residual = 1.22048e-06, No Iterations 5
GAMG:  Solving for p, Initial residual = 0.404674, Final residual = 5.19517e-06, No Iterations 20
time step continuity errors : sum local = 2.63385e-05, global = 2.15483e-06, cumulative = 8.28951e-06
ExecutionTime = 41.93 s  ClockTime = 42 s

Time = 17

GAMG:  Solving for Ux, Initial residual = 0.0256028, Final residual = 3.71595e-06, No Iterations 3
GAMG:  Solving for Uy, Initial residual = 0.0255458, Final residual = 2.99229e-06, No Iterations 3
GAMG:  Solving for Uz, Initial residual = 0.163213, Final residual = 7.87662e-06, No Iterations 4
GAMG:  Solving for p, Initial residual = 0.27838, Final residual = 5.50821e-06, No Iterations 18
time step continuity errors : sum local = 5.19279e-05, global = -2.20355e-06, cumulative = 6.08597e-06
ExecutionTime = 44.55 s  ClockTime = 45 s

Time = 18

GAMG:  Solving for Ux, Initial residual = 0.0153578, Final residual = 2.32322e-06, No Iterations 3
GAMG:  Solving for Uy, Initial residual = 0.015342, Final residual = 1.96391e-06, No Iterations 3
GAMG:  Solving for Uz, Initial residual = 0.136122, Final residual = 4.69927e-06, No Iterations 4
GAMG:  Solving for p, Initial residual = 0.2212, Final residual = 5.62836e-06, No Iterations 22
time step continuity errors : sum local = 3.43904e-05, global = -3.78383e-06, cumulative = 2.30213e-06
ExecutionTime = 47.62 s  ClockTime = 48 s

Time = 19

GAMG:  Solving for Ux, Initial residual = 0.0104301, Final residual = 2.93923e-06, No Iterations 3
GAMG:  Solving for Uy, Initial residual = 0.00927575, Final residual = 2.30101e-06, No Iterations 3
GAMG:  Solving for Uz, Initial residual = 0.162263, Final residual = 7.47236e-06, No Iterations 4
GAMG:  Solving for p, Initial residual = 0.275156, Final residual = 3.12206e-06, No Iterations 17
time step continuity errors : sum local = 1.64085e-05, global = -5.30806e-07, cumulative = 1.77133e-06
ExecutionTime = 50.18 s  ClockTime = 50 s

Time = 20

GAMG:  Solving for Ux, Initial residual = 0.0147534, Final residual = 1.97605e-06, No Iterations 3
GAMG:  Solving for Uy, Initial residual = 0.0140686, Final residual = 1.56526e-06, No Iterations 3
GAMG:  Solving for Uz, Initial residual = 0.0949972, Final residual = 4.43603e-06, No Iterations 4
GAMG:  Solving for p, Initial residual = 0.21698, Final residual = 6.38796e-06, No Iterations 18
time step continuity errors : sum local = 4.46192e-05, global = 4.00066e-06, cumulative = 5.77198e-06
ExecutionTime = 52.94 s  ClockTime = 53 s

Time = 21

GAMG:  Solving for Ux, Initial residual = 0.0074176, Final residual = 1.50541e-06, No Iterations 3
GAMG:  Solving for Uy, Initial residual = 0.00703799, Final residual = 1.23472e-06, No Iterations 3
GAMG:  Solving for Uz, Initial residual = 0.0975604, Final residual = 3.46249e-06, No Iterations 4
GAMG:  Solving for p, Initial residual = 0.155029, Final residual = 6.40943e-06, No Iterations 20
time step continuity errors : sum local = 3.0457e-05, global = 4.70604e-06, cumulative = 1.0478e-05
ExecutionTime = 55.64 s  ClockTime = 56 s

Time = 22

GAMG:  Solving for Ux, Initial residual = 0.00759475, Final residual = 1.79394e-06, No Iterations 3
GAMG:  Solving for Uy, Initial residual = 0.00762765, Final residual = 1.45703e-06, No Iterations 3
GAMG:  Solving for Uz, Initial residual = 0.102276, Final residual = 4.43485e-06, No Iterations 4
GAMG:  Solving for p, Initial residual = 0.24735, Final residual = 7.75509e-06, No Iterations 17
time step continuity errors : sum local = 2.95676e-05, global = -2.51773e-07, cumulative = 1.02262e-05
ExecutionTime = 58.4 s  ClockTime = 58 s

Time = 23

GAMG:  Solving for Ux, Initial residual = 0.00839492, Final residual = 1.20278e-06, No Iterations 3
GAMG:  Solving for Uy, Initial residual = 0.00832093, Final residual = 1.02767e-06, No Iterations 3
GAMG:  Solving for Uz, Initial residual = 0.0608817, Final residual = 2.3887e-06, No Iterations 4
GAMG:  Solving for p, Initial residual = 0.200331, Final residual = 3.54197e-06, No Iterations 17
time step continuity errors : sum local = 1.51699e-05, global = 2.01257e-07, cumulative = 1.04275e-05
ExecutionTime = 60.71 s  ClockTime = 61 s

Time = 24

GAMG:  Solving for Ux, Initial residual = 0.00400694, Final residual = 1.11171e-06, No Iterations 3
GAMG:  Solving for Uy, Initial residual = 0.00353552, Final residual = 9.8364e-06, No Iterations 2
GAMG:  Solving for Uz, Initial residual = 0.0626382, Final residual = 2.32981e-06, No Iterations 4
GAMG:  Solving for p, Initial residual = 0.166974, Final residual = 4.65416e-06, No Iterations 20
time step continuity errors : sum local = 1.34563e-05, global = -8.62431e-07, cumulative = 9.56507e-06
ExecutionTime = 63.09 s  ClockTime = 63 s

Time = 25

GAMG:  Solving for Ux, Initial residual = 0.00521761, Final residual = 1.10561e-06, No Iterations 3
GAMG:  Solving for Uy, Initial residual = 0.00497991, Final residual = 9.61952e-06, No Iterations 2
GAMG:  Solving for Uz, Initial residual = 0.0584668, Final residual = 2.44494e-06, No Iterations 4
GAMG:  Solving for p, Initial residual = 0.150098, Final residual = 6.87375e-06, No Iterations 12
time step continuity errors : sum local = 2.83397e-05, global = -1.59693e-08, cumulative = 9.54911e-06
ExecutionTime = 65.05 s  ClockTime = 65 s

Time = 26

GAMG:  Solving for Ux, Initial residual = 0.00493762, Final residual = 7.84521e-06, No Iterations 2
GAMG:  Solving for Uy, Initial residual = 0.00473241, Final residual = 6.97999e-06, No Iterations 2
GAMG:  Solving for Uz, Initial residual = 0.0391588, Final residual = 1.30776e-06, No Iterations 4
GAMG:  Solving for p, Initial residual = 0.115376, Final residual = 4.68952e-06, No Iterations 18
time step continuity errors : sum local = 1.9188e-05, global = 1.46347e-06, cumulative = 1.10126e-05
ExecutionTime = 67.3 s  ClockTime = 67 s

Time = 27

GAMG:  Solving for Ux, Initial residual = 0.00284032, Final residual = 8.35325e-06, No Iterations 2
GAMG:  Solving for Uy, Initial residual = 0.00265046, Final residual = 7.31945e-06, No Iterations 2
GAMG:  Solving for Uz, Initial residual = 0.0426369, Final residual = 1.55339e-06, No Iterations 4
GAMG:  Solving for p, Initial residual = 0.102037, Final residual = 3.46627e-06, No Iterations 17
time step continuity errors : sum local = 1.11526e-05, global = 2.22263e-07, cumulative = 1.12348e-05
ExecutionTime = 69.47 s  ClockTime = 70 s

Time = 28

GAMG:  Solving for Ux, Initial residual = 0.00353666, Final residual = 8.12823e-06, No Iterations 2
GAMG:  Solving for Uy, Initial residual = 0.00340776, Final residual = 7.17056e-06, No Iterations 2
GAMG:  Solving for Uz, Initial residual = 0.0353798, Final residual = 1.3967e-06, No Iterations 4
GAMG:  Solving for p, Initial residual = 0.134517, Final residual = 5.61246e-06, No Iterations 19
time step continuity errors : sum local = 1.68818e-05, global = -2.99295e-06, cumulative = 8.24189e-06
ExecutionTime = 71.74 s  ClockTime = 72 s

Time = 29

GAMG:  Solving for Ux, Initial residual = 0.00301791, Final residual = 6.10302e-06, No Iterations 2
GAMG:  Solving for Uy, Initial residual = 0.00297253, Final residual = 5.88372e-06, No Iterations 2
GAMG:  Solving for Uz, Initial residual = 0.0284169, Final residual = 8.65142e-06, No Iterations 3
GAMG:  Solving for p, Initial residual = 0.102836, Final residual = 9.91864e-06, No Iterations 15
time step continuity errors : sum local = 2.80257e-05, global = 2.92687e-06, cumulative = 1.11688e-05
ExecutionTime = 73.87 s  ClockTime = 74 s

Time = 30

GAMG:  Solving for Ux, Initial residual = 0.00221023, Final residual = 6.00256e-06, No Iterations 2
GAMG:  Solving for Uy, Initial residual = 0.00226873, Final residual = 5.66436e-06, No Iterations 2
GAMG:  Solving for Uz, Initial residual = 0.0305262, Final residual = 1.00171e-06, No Iterations 4
GAMG:  Solving for p, Initial residual = 0.0713378, Final residual = 5.43069e-06, No Iterations 15
time step continuity errors : sum local = 1.79374e-05, global = -2.41929e-06, cumulative = 8.74947e-06
ExecutionTime = 76.58 s  ClockTime = 77 s

Time = 31

GAMG:  Solving for Ux, Initial residual = 0.00249852, Final residual = 5.3143e-06, No Iterations 2
GAMG:  Solving for Uy, Initial residual = 0.00244203, Final residual = 4.97351e-06, No Iterations 2
GAMG:  Solving for Uz, Initial residual = 0.0243027, Final residual = 8.26739e-06, No Iterations 3
GAMG:  Solving for p, Initial residual = 0.0705632, Final residual = 7.76536e-06, No Iterations 17
time step continuity errors : sum local = 2.78282e-05, global = 9.28562e-06, cumulative = 1.80351e-05
ExecutionTime = 79.08 s  ClockTime = 79 s

Time = 32

GAMG:  Solving for Ux, Initial residual = 0.00206639, Final residual = 4.66827e-06, No Iterations 2
GAMG:  Solving for Uy, Initial residual = 0.00188707, Final residual = 4.38868e-06, No Iterations 2
GAMG:  Solving for Uz, Initial residual = 0.0196734, Final residual = 5.93106e-06, No Iterations 3
GAMG:  Solving for p, Initial residual = 0.0550638, Final residual = 3.59974e-06, No Iterations 17
time step continuity errors : sum local = 1.22953e-05, global = 2.60336e-07, cumulative = 1.82954e-05
ExecutionTime = 81.21 s  ClockTime = 81 s

Time = 33

GAMG:  Solving for Ux, Initial residual = 0.00194299, Final residual = 4.88806e-06, No Iterations 2
GAMG:  Solving for Uy, Initial residual = 0.00177283, Final residual = 4.5556e-06, No Iterations 2
GAMG:  Solving for Uz, Initial residual = 0.0194509, Final residual = 6.72625e-06, No Iterations 3
GAMG:  Solving for p, Initial residual = 0.0582712, Final residual = 5.2579e-06, No Iterations 15
time step continuity errors : sum local = 1.6284e-05, global = 2.7574e-06, cumulative = 2.10528e-05
ExecutionTime = 83.29 s  ClockTime = 83 s

Time = 34

GAMG:  Solving for Ux, Initial residual = 0.00204021, Final residual = 4.4463e-06, No Iterations 2
GAMG:  Solving for Uy, Initial residual = 0.00200791, Final residual = 4.33243e-06, No Iterations 2
GAMG:  Solving for Uz, Initial residual = 0.0180026, Final residual = 5.37766e-06, No Iterations 3
GAMG:  Solving for p, Initial residual = 0.0580959, Final residual = 4.77964e-06, No Iterations 15
time step continuity errors : sum local = 1.41731e-05, global = -1.90211e-06, cumulative = 1.91507e-05
ExecutionTime = 85.35 s  ClockTime = 85 s

Time = 35

GAMG:  Solving for Ux, Initial residual = 0.00178481, Final residual = 3.96813e-06, No Iterations 2
GAMG:  Solving for Uy, Initial residual = 0.00182044, Final residual = 4.02407e-06, No Iterations 2
GAMG:  Solving for Uz, Initial residual = 0.0173191, Final residual = 4.57025e-06, No Iterations 3
GAMG:  Solving for p, Initial residual = 0.0425516, Final residual = 6.24073e-06, No Iterations 13
time step continuity errors : sum local = 1.91898e-05, global = 2.0587e-06, cumulative = 2.12094e-05
ExecutionTime = 87.33 s  ClockTime = 87 s

Time = 36

GAMG:  Solving for Ux, Initial residual = 0.00160263, Final residual = 3.79554e-06, No Iterations 2
GAMG:  Solving for Uy, Initial residual = 0.0016275, Final residual = 3.77501e-06, No Iterations 2
GAMG:  Solving for Uz, Initial residual = 0.016095, Final residual = 4.63814e-06, No Iterations 3
GAMG:  Solving for p, Initial residual = 0.0408875, Final residual = 5.30828e-06, No Iterations 13
time step continuity errors : sum local = 1.7241e-05, global = 2.53106e-06, cumulative = 2.37405e-05
ExecutionTime = 89.25 s  ClockTime = 89 s

Time = 37

GAMG:  Solving for Ux, Initial residual = 0.00156102, Final residual = 3.52188e-06, No Iterations 2
GAMG:  Solving for Uy, Initial residual = 0.00147451, Final residual = 3.44289e-06, No Iterations 2
GAMG:  Solving for Uz, Initial residual = 0.0135794, Final residual = 3.72208e-06, No Iterations 3
GAMG:  Solving for p, Initial residual = 0.0378047, Final residual = 5.1175e-06, No Iterations 15
time step continuity errors : sum local = 1.6908e-05, global = 1.38283e-06, cumulative = 2.51233e-05
ExecutionTime = 91.29 s  ClockTime = 91 s

Time = 38

GAMG:  Solving for Ux, Initial residual = 0.0015225, Final residual = 3.45503e-06, No Iterations 2
GAMG:  Solving for Uy, Initial residual = 0.00144072, Final residual = 3.4091e-06, No Iterations 2
GAMG:  Solving for Uz, Initial residual = 0.0131129, Final residual = 3.41059e-06, No Iterations 3
GAMG:  Solving for p, Initial residual = 0.032623, Final residual = 8.33573e-06, No Iterations 13
time step continuity errors : sum local = 2.69687e-05, global = 3.98177e-06, cumulative = 2.91051e-05
ExecutionTime = 93.79 s  ClockTime = 94 s

Time = 39

GAMG:  Solving for Ux, Initial residual = 0.00153879, Final residual = 3.38048e-06, No Iterations 2
GAMG:  Solving for Uy, Initial residual = 0.00151187, Final residual = 3.42537e-06, No Iterations 2
GAMG:  Solving for Uz, Initial residual = 0.013093, Final residual = 3.33964e-06, No Iterations 3
GAMG:  Solving for p, Initial residual = 0.0326212, Final residual = 6.09348e-06, No Iterations 10
time step continuity errors : sum local = 1.92352e-05, global = 4.66244e-06, cumulative = 3.37675e-05
ExecutionTime = 95.85 s  ClockTime = 96 s

Time = 40

GAMG:  Solving for Ux, Initial residual = 0.00148133, Final residual = 3.16591e-06, No Iterations 2
GAMG:  Solving for Uy, Initial residual = 0.00148779, Final residual = 3.30704e-06, No Iterations 2
GAMG:  Solving for Uz, Initial residual = 0.0124257, Final residual = 2.94406e-06, No Iterations 3
GAMG:  Solving for p, Initial residual = 0.0298348, Final residual = 6.55082e-06, No Iterations 13
time step continuity errors : sum local = 2.06336e-05, global = -2.96452e-06, cumulative = 3.0803e-05
ExecutionTime = 98.64 s  ClockTime = 99 s

Time = 41

GAMG:  Solving for Ux, Initial residual = 0.0013668, Final residual = 3.01856e-06, No Iterations 2
GAMG:  Solving for Uy, Initial residual = 0.00137959, Final residual = 3.16612e-06, No Iterations 2
GAMG:  Solving for Uz, Initial residual = 0.011747, Final residual = 2.81647e-06, No Iterations 3
GAMG:  Solving for p, Initial residual = 0.0273794, Final residual = 4.92593e-06, No Iterations 13
time step continuity errors : sum local = 1.57591e-05, global = -1.03756e-06, cumulative = 2.97654e-05
ExecutionTime = 100.69 s  ClockTime = 101 s

Time = 42

GAMG:  Solving for Ux, Initial residual = 0.0013058, Final residual = 2.90161e-06, No Iterations 2
GAMG:  Solving for Uy, Initial residual = 0.00129745, Final residual = 3.00326e-06, No Iterations 2
GAMG:  Solving for Uz, Initial residual = 0.0109018, Final residual = 2.61402e-06, No Iterations 3
GAMG:  Solving for p, Initial residual = 0.0265154, Final residual = 7.16668e-06, No Iterations 10
time step continuity errors : sum local = 2.32123e-05, global = -2.94674e-06, cumulative = 2.68187e-05
ExecutionTime = 102.66 s  ClockTime = 103 s

Time = 43

GAMG:  Solving for Ux, Initial residual = 0.00129821, Final residual = 2.80685e-06, No Iterations 2
GAMG:  Solving for Uy, Initial residual = 0.00129137, Final residual = 2.89536e-06, No Iterations 2
GAMG:  Solving for Uz, Initial residual = 0.0105136, Final residual = 2.36623e-06, No Iterations 3
GAMG:  Solving for p, Initial residual = 0.0243062, Final residual = 6.36489e-06, No Iterations 11
time step continuity errors : sum local = 2.05784e-05, global = 3.61409e-06, cumulative = 3.04328e-05
ExecutionTime = 105.13 s  ClockTime = 105 s

Time = 44

GAMG:  Solving for Ux, Initial residual = 0.00128595, Final residual = 2.73355e-06, No Iterations 2
GAMG:  Solving for Uy, Initial residual = 0.00128858, Final residual = 2.85857e-06, No Iterations 2
GAMG:  Solving for Uz, Initial residual = 0.0103528, Final residual = 2.31225e-06, No Iterations 3
GAMG:  Solving for p, Initial residual = 0.023071, Final residual = 9.48536e-06, No Iterations 10
time step continuity errors : sum local = 3.03807e-05, global = -7.99253e-06, cumulative = 2.24403e-05
ExecutionTime = 107.64 s  ClockTime = 108 s

Time = 45

GAMG:  Solving for Ux, Initial residual = 0.00125796, Final residual = 2.64496e-06, No Iterations 2
GAMG:  Solving for Uy, Initial residual = 0.00126674, Final residual = 2.79623e-06, No Iterations 2
GAMG:  Solving for Uz, Initial residual = 0.0100281, Final residual = 2.20563e-06, No Iterations 3
GAMG:  Solving for p, Initial residual = 0.0226567, Final residual = 6.37983e-06, No Iterations 11
time step continuity errors : sum local = 2.03394e-05, global = -7.68666e-06, cumulative = 1.47536e-05
ExecutionTime = 109.93 s  ClockTime = 110 s

Time = 46

GAMG:  Solving for Ux, Initial residual = 0.00120768, Final residual = 2.54443e-06, No Iterations 2
GAMG:  Solving for Uy, Initial residual = 0.00122047, Final residual = 2.70461e-06, No Iterations 2
GAMG:  Solving for Uz, Initial residual = 0.00959229, Final residual = 2.06624e-06, No Iterations 3
GAMG:  Solving for p, Initial residual = 0.0215804, Final residual = 6.66887e-06, No Iterations 11
time step continuity errors : sum local = 2.13573e-05, global = -5.10817e-06, cumulative = 9.64544e-06
ExecutionTime = 112.22 s  ClockTime = 112 s

Time = 47

GAMG:  Solving for Ux, Initial residual = 0.00116424, Final residual = 2.46457e-06, No Iterations 2
GAMG:  Solving for Uy, Initial residual = 0.00119328, Final residual = 2.61955e-06, No Iterations 2
GAMG:  Solving for Uz, Initial residual = 0.00927369, Final residual = 1.97546e-06, No Iterations 3
GAMG:  Solving for p, Initial residual = 0.0205821, Final residual = 9.71588e-06, No Iterations 8
time step continuity errors : sum local = 3.137e-05, global = -5.29637e-06, cumulative = 4.34906e-06
ExecutionTime = 114.36 s  ClockTime = 115 s

Time = 48

GAMG:  Solving for Ux, Initial residual = 0.00113807, Final residual = 2.40024e-06, No Iterations 2
GAMG:  Solving for Uy, Initial residual = 0.00117889, Final residual = 2.5353e-06, No Iterations 2
GAMG:  Solving for Uz, Initial residual = 0.00901348, Final residual = 1.88991e-06, No Iterations 3
GAMG:  Solving for p, Initial residual = 0.019582, Final residual = 7.53777e-06, No Iterations 7
time step continuity errors : sum local = 2.44454e-05, global = -8.32859e-07, cumulative = 3.5162e-06
ExecutionTime = 116.82 s  ClockTime = 117 s

Time = 49

GAMG:  Solving for Ux, Initial residual = 0.00111545, Final residual = 2.34022e-06, No Iterations 2
GAMG:  Solving for Uy, Initial residual = 0.00115843, Final residual = 2.46769e-06, No Iterations 2
GAMG:  Solving for Uz, Initial residual = 0.00873358, Final residual = 1.82585e-06, No Iterations 3
GAMG:  Solving for p, Initial residual = 0.0187156, Final residual = 7.60762e-06, No Iterations 9
time step continuity errors : sum local = 2.46508e-05, global = 5.74717e-06, cumulative = 9.26337e-06
ExecutionTime = 119.1 s  ClockTime = 119 s

Time = 50

GAMG:  Solving for Ux, Initial residual = 0.00109051, Final residual = 2.27441e-06, No Iterations 2
GAMG:  Solving for Uy, Initial residual = 0.00113398, Final residual = 2.40929e-06, No Iterations 2
GAMG:  Solving for Uz, Initial residual = 0.00846988, Final residual = 1.76869e-06, No Iterations 3
GAMG:  Solving for p, Initial residual = 0.0183329, Final residual = 9.38016e-06, No Iterations 8
time step continuity errors : sum local = 3.0314e-05, global = -3.58631e-06, cumulative = 5.67706e-06
ExecutionTime = 120.95 s  ClockTime = 121 s

Time = 51

GAMG:  Solving for Ux, Initial residual = 0.00106326, Final residual = 2.2007e-06, No Iterations 2
GAMG:  Solving for Uy, Initial residual = 0.00111079, Final residual = 2.35254e-06, No Iterations 2
GAMG:  Solving for Uz, Initial residual = 0.00822585, Final residual = 1.68916e-06, No Iterations 3
GAMG:  Solving for p, Initial residual = 0.0178382, Final residual = 6.79567e-06, No Iterations 8
time step continuity errors : sum local = 2.19487e-05, global = 3.13707e-06, cumulative = 8.81413e-06
ExecutionTime = 122.65 s  ClockTime = 123 s

Time = 52

GAMG:  Solving for Ux, Initial residual = 0.00103627, Final residual = 2.13426e-06, No Iterations 2
GAMG:  Solving for Uy, Initial residual = 0.00109812, Final residual = 2.3045e-06, No Iterations 2
GAMG:  Solving for Uz, Initial residual = 0.00805939, Final residual = 1.62019e-06, No Iterations 3
GAMG:  Solving for p, Initial residual = 0.0171602, Final residual = 9.29137e-06, No Iterations 7
time step continuity errors : sum local = 3.00733e-05, global = 2.86501e-06, cumulative = 1.16791e-05
ExecutionTime = 124.36 s  ClockTime = 125 s

Time = 53

GAMG:  Solving for Ux, Initial residual = 0.00101015, Final residual = 2.07622e-06, No Iterations 2
GAMG:  Solving for Uy, Initial residual = 0.0010825, Final residual = 2.25107e-06, No Iterations 2
GAMG:  Solving for Uz, Initial residual = 0.00787485, Final residual = 1.57651e-06, No Iterations 3
GAMG:  Solving for p, Initial residual = 0.0165563, Final residual = 7.20317e-06, No Iterations 7
time step continuity errors : sum local = 2.33811e-05, global = -1.42065e-06, cumulative = 1.02585e-05
ExecutionTime = 126.32 s  ClockTime = 127 s

Time = 54

GAMG:  Solving for Ux, Initial residual = 0.000986434, Final residual = 2.02556e-06, No Iterations 2
GAMG:  Solving for Uy, Initial residual = 0.00106171, Final residual = 2.19339e-06, No Iterations 2
GAMG:  Solving for Uz, Initial residual = 0.0076555, Final residual = 1.53954e-06, No Iterations 3
GAMG:  Solving for p, Initial residual = 0.016082, Final residual = 5.43682e-06, No Iterations 8
time step continuity errors : sum local = 1.7678e-05, global = 1.52053e-06, cumulative = 1.1779e-05
ExecutionTime = 128.51 s  ClockTime = 129 s

Time = 55

GAMG:  Solving for Ux, Initial residual = 0.000964398, Final residual = 1.97976e-06, No Iterations 2
GAMG:  Solving for Uy, Initial residual = 0.00104, Final residual = 2.13976e-06, No Iterations 2
GAMG:  Solving for Uz, Initial residual = 0.00745045, Final residual = 1.50033e-06, No Iterations 3
GAMG:  Solving for p, Initial residual = 0.0157131, Final residual = 5.12249e-06, No Iterations 8
time step continuity errors : sum local = 1.66657e-05, global = -1.0273e-06, cumulative = 1.07517e-05
ExecutionTime = 130.19 s  ClockTime = 131 s

Time = 56

GAMG:  Solving for Ux, Initial residual = 0.000944491, Final residual = 1.93175e-06, No Iterations 2
GAMG:  Solving for Uy, Initial residual = 0.00102433, Final residual = 2.09529e-06, No Iterations 2
GAMG:  Solving for Uz, Initial residual = 0.00729017, Final residual = 1.46045e-06, No Iterations 3
GAMG:  Solving for p, Initial residual = 0.0153134, Final residual = 9.57028e-06, No Iterations 7
time step continuity errors : sum local = 3.11549e-05, global = -1.41586e-06, cumulative = 9.33586e-06
ExecutionTime = 131.82 s  ClockTime = 132 s

Time = 57

GAMG:  Solving for Ux, Initial residual = 0.000924034, Final residual = 1.88145e-06, No Iterations 2
GAMG:  Solving for Uy, Initial residual = 0.00101229, Final residual = 2.0554e-06, No Iterations 2
GAMG:  Solving for Uz, Initial residual = 0.00716571, Final residual = 1.43214e-06, No Iterations 3
GAMG:  Solving for p, Initial residual = 0.0148687, Final residual = 9.06991e-06, No Iterations 6
time step continuity errors : sum local = 2.95659e-05, global = 1.70634e-06, cumulative = 1.10422e-05
ExecutionTime = 133.43 s  ClockTime = 134 s

Time = 58

GAMG:  Solving for Ux, Initial residual = 0.000901976, Final residual = 1.83199e-06, No Iterations 2
GAMG:  Solving for Uy, Initial residual = 0.000997866, Final residual = 2.01185e-06, No Iterations 2
GAMG:  Solving for Uz, Initial residual = 0.00702058, Final residual = 1.40994e-06, No Iterations 3
GAMG:  Solving for p, Initial residual = 0.0144703, Final residual = 5.61103e-06, No Iterations 7
time step continuity errors : sum local = 1.83246e-05, global = -3.94441e-06, cumulative = 7.09779e-06
ExecutionTime = 135.06 s  ClockTime = 135 s

Time = 59

GAMG:  Solving for Ux, Initial residual = 0.000881045, Final residual = 1.78313e-06, No Iterations 2
GAMG:  Solving for Uy, Initial residual = 0.000981103, Final residual = 1.96624e-06, No Iterations 2
GAMG:  Solving for Uz, Initial residual = 0.00685973, Final residual = 1.38206e-06, No Iterations 3
GAMG:  Solving for p, Initial residual = 0.0141451, Final residual = 6.4797e-06, No Iterations 7
time step continuity errors : sum local = 2.11966e-05, global = -5.71666e-06, cumulative = 1.38112e-06
ExecutionTime = 136.69 s  ClockTime = 137 s

Time = 60

GAMG:  Solving for Ux, Initial residual = 0.000862257, Final residual = 1.73697e-06, No Iterations 2
GAMG:  Solving for Uy, Initial residual = 0.000964815, Final residual = 1.9265e-06, No Iterations 2
GAMG:  Solving for Uz, Initial residual = 0.00670166, Final residual = 1.35247e-06, No Iterations 3
GAMG:  Solving for p, Initial residual = 0.0138366, Final residual = 6.0122e-06, No Iterations 7
time step continuity errors : sum local = 1.96896e-05, global = -4.7637e-06, cumulative = -3.38258e-06
ExecutionTime = 138.36 s  ClockTime = 139 s

Time = 61

GAMG:  Solving for Ux, Initial residual = 0.00084531, Final residual = 1.69406e-06, No Iterations 2
GAMG:  Solving for Uy, Initial residual = 0.000951485, Final residual = 1.88922e-06, No Iterations 2
GAMG:  Solving for Uz, Initial residual = 0.00657197, Final residual = 1.32384e-06, No Iterations 3
GAMG:  Solving for p, Initial residual = 0.0135144, Final residual = 7.95502e-06, No Iterations 6
time step continuity errors : sum local = 2.60753e-05, global = -6.35061e-07, cumulative = -4.01764e-06
ExecutionTime = 139.95 s  ClockTime = 140 s

Time = 62

GAMG:  Solving for Ux, Initial residual = 0.000828111, Final residual = 1.65323e-06, No Iterations 2
GAMG:  Solving for Uy, Initial residual = 0.000939217, Final residual = 1.85439e-06, No Iterations 2
GAMG:  Solving for Uz, Initial residual = 0.00645771, Final residual = 1.29727e-06, No Iterations 3
GAMG:  Solving for p, Initial residual = 0.0131872, Final residual = 5.99132e-06, No Iterations 6
time step continuity errors : sum local = 1.96604e-05, global = -3.65248e-07, cumulative = -4.38288e-06
ExecutionTime = 141.59 s  ClockTime = 142 s

Time = 63

GAMG:  Solving for Ux, Initial residual = 0.000810328, Final residual = 1.61434e-06, No Iterations 2
GAMG:  Solving for Uy, Initial residual = 0.000925925, Final residual = 1.81888e-06, No Iterations 2
GAMG:  Solving for Uz, Initial residual = 0.0063331, Final residual = 1.27001e-06, No Iterations 3
GAMG:  Solving for p, Initial residual = 0.0128821, Final residual = 7.63075e-06, No Iterations 6
time step continuity errors : sum local = 2.50778e-05, global = -2.06079e-06, cumulative = -6.44368e-06
ExecutionTime = 143.17 s  ClockTime = 144 s

Time = 64

GAMG:  Solving for Ux, Initial residual = 0.000792818, Final residual = 1.57614e-06, No Iterations 2
GAMG:  Solving for Uy, Initial residual = 0.000912174, Final residual = 1.78276e-06, No Iterations 2
GAMG:  Solving for Uz, Initial residual = 0.00619964, Final residual = 1.24088e-06, No Iterations 3
GAMG:  Solving for p, Initial residual = 0.0126024, Final residual = 8.24783e-06, No Iterations 6
time step continuity errors : sum local = 2.71527e-05, global = 1.65258e-06, cumulative = -4.7911e-06
ExecutionTime = 144.78 s  ClockTime = 145 s

Time = 65

GAMG:  Solving for Ux, Initial residual = 0.000776631, Final residual = 1.5389e-06, No Iterations 2
GAMG:  Solving for Uy, Initial residual = 0.00089911, Final residual = 1.74762e-06, No Iterations 2
GAMG:  Solving for Uz, Initial residual = 0.0060729, Final residual = 1.21183e-06, No Iterations 3
GAMG:  Solving for p, Initial residual = 0.0123309, Final residual = 6.2888e-06, No Iterations 6
time step continuity errors : sum local = 2.07376e-05, global = 2.33233e-06, cumulative = -2.45876e-06
ExecutionTime = 146.36 s  ClockTime = 147 s

Time = 66

GAMG:  Solving for Ux, Initial residual = 0.000761643, Final residual = 1.50317e-06, No Iterations 2
GAMG:  Solving for Uy, Initial residual = 0.000887029, Final residual = 1.71562e-06, No Iterations 2
GAMG:  Solving for Uz, Initial residual = 0.00596148, Final residual = 1.18521e-06, No Iterations 3
GAMG:  Solving for p, Initial residual = 0.0120554, Final residual = 5.17773e-06, No Iterations 6
time step continuity errors : sum local = 1.70987e-05, global = 8.59404e-07, cumulative = -1.59936e-06
ExecutionTime = 148.48 s  ClockTime = 149 s

Time = 67

GAMG:  Solving for Ux, Initial residual = 0.000746817, Final residual = 1.4697e-06, No Iterations 2
GAMG:  Solving for Uy, Initial residual = 0.000875314, Final residual = 1.68417e-06, No Iterations 2
GAMG:  Solving for Uz, Initial residual = 0.00585695, Final residual = 1.16094e-06, No Iterations 3
GAMG:  Solving for p, Initial residual = 0.0117941, Final residual = 4.83867e-06, No Iterations 6
time step continuity errors : sum local = 1.60009e-05, global = 6.61286e-07, cumulative = -9.38073e-07
ExecutionTime = 150.43 s  ClockTime = 151 s

Time = 68

GAMG:  Solving for Ux, Initial residual = 0.00073207, Final residual = 1.43681e-06, No Iterations 2
GAMG:  Solving for Uy, Initial residual = 0.000863684, Final residual = 1.65152e-06, No Iterations 2
GAMG:  Solving for Uz, Initial residual = 0.0057502, Final residual = 1.1353e-06, No Iterations 3
GAMG:  Solving for p, Initial residual = 0.0115543, Final residual = 5.48761e-06, No Iterations 6
time step continuity errors : sum local = 1.81725e-05, global = 3.09843e-07, cumulative = -6.2823e-07
ExecutionTime = 152.15 s  ClockTime = 153 s

Time = 69

GAMG:  Solving for Ux, Initial residual = 0.000717805, Final residual = 1.40509e-06, No Iterations 2
GAMG:  Solving for Uy, Initial residual = 0.000852287, Final residual = 1.61868e-06, No Iterations 2
GAMG:  Solving for Uz, Initial residual = 0.00564378, Final residual = 1.10908e-06, No Iterations 3
GAMG:  Solving for p, Initial residual = 0.0113239, Final residual = 5.4786e-06, No Iterations 6
time step continuity errors : sum local = 1.81701e-05, global = -8.91328e-07, cumulative = -1.51956e-06
ExecutionTime = 153.86 s  ClockTime = 154 s

Time = 70

GAMG:  Solving for Ux, Initial residual = 0.000704214, Final residual = 1.37385e-06, No Iterations 2
GAMG:  Solving for Uy, Initial residual = 0.000841307, Final residual = 1.5864e-06, No Iterations 2
GAMG:  Solving for Uz, Initial residual = 0.00554115, Final residual = 1.08446e-06, No Iterations 3
GAMG:  Solving for p, Initial residual = 0.0110972, Final residual = 5.11721e-06, No Iterations 6
time step continuity errors : sum local = 1.69978e-05, global = -4.7087e-07, cumulative = -1.99043e-06
ExecutionTime = 155.71 s  ClockTime = 156 s

Time = 71

GAMG:  Solving for Ux, Initial residual = 0.000691198, Final residual = 1.34366e-06, No Iterations 2
GAMG:  Solving for Uy, Initial residual = 0.000830719, Final residual = 1.55519e-06, No Iterations 2
GAMG:  Solving for Uz, Initial residual = 0.00544505, Final residual = 1.06137e-06, No Iterations 3
GAMG:  Solving for p, Initial residual = 0.010876, Final residual = 4.82114e-06, No Iterations 6
time step continuity errors : sum local = 1.60384e-05, global = 1.10042e-07, cumulative = -1.88039e-06
ExecutionTime = 157.44 s  ClockTime = 158 s

Time = 72

GAMG:  Solving for Ux, Initial residual = 0.000678483, Final residual = 1.31564e-06, No Iterations 2
GAMG:  Solving for Uy, Initial residual = 0.000820302, Final residual = 1.52533e-06, No Iterations 2
GAMG:  Solving for Uz, Initial residual = 0.00535149, Final residual = 1.03832e-06, No Iterations 3
GAMG:  Solving for p, Initial residual = 0.0106635, Final residual = 4.72765e-06, No Iterations 6
time step continuity errors : sum local = 1.57503e-05, global = 4.38608e-07, cumulative = -1.44178e-06
ExecutionTime = 159.22 s  ClockTime = 160 s

Time = 73

GAMG:  Solving for Ux, Initial residual = 0.000666064, Final residual = 1.28874e-06, No Iterations 2
GAMG:  Solving for Uy, Initial residual = 0.00081025, Final residual = 1.49655e-06, No Iterations 2
GAMG:  Solving for Uz, Initial residual = 0.00525796, Final residual = 1.01553e-06, No Iterations 3
GAMG:  Solving for p, Initial residual = 0.01046, Final residual = 4.80217e-06, No Iterations 6
time step continuity errors : sum local = 1.6022e-05, global = 7.42383e-07, cumulative = -6.99395e-07
ExecutionTime = 161.08 s  ClockTime = 162 s

Time = 74

GAMG:  Solving for Ux, Initial residual = 0.000653939, Final residual = 1.26317e-06, No Iterations 2
GAMG:  Solving for Uy, Initial residual = 0.000800517, Final residual = 1.46924e-06, No Iterations 2
GAMG:  Solving for Uz, Initial residual = 0.00516565, Final residual = 9.94465e-07, No Iterations 3
GAMG:  Solving for p, Initial residual = 0.0102638, Final residual = 4.7507e-06, No Iterations 6
time step continuity errors : sum local = 1.58741e-05, global = 5.1811e-07, cumulative = -1.81285e-07
ExecutionTime = 163.27 s  ClockTime = 164 s

Time = 75

GAMG:  Solving for Ux, Initial residual = 0.000642224, Final residual = 1.23858e-06, No Iterations 2
GAMG:  Solving for Uy, Initial residual = 0.000791224, Final residual = 1.44321e-06, No Iterations 2
GAMG:  Solving for Uz, Initial residual = 0.00507656, Final residual = 9.74696e-07, No Iterations 3
GAMG:  Solving for p, Initial residual = 0.0100709, Final residual = 4.56837e-06, No Iterations 6
time step continuity errors : sum local = 1.5288e-05, global = 1.11842e-07, cumulative = -6.94437e-08
ExecutionTime = 165.48 s  ClockTime = 166 s

Time = 76

GAMG:  Solving for Ux, Initial residual = 0.00063094, Final residual = 1.2145e-06, No Iterations 2
GAMG:  Solving for Uy, Initial residual = 0.000782294, Final residual = 1.41822e-06, No Iterations 2
GAMG:  Solving for Uz, Initial residual = 0.00498983, Final residual = 9.55432e-07, No Iterations 3
GAMG:  Solving for p, Initial residual = 0.00988527, Final residual = 4.34933e-06, No Iterations 6
time step continuity errors : sum local = 1.45769e-05, global = -5.30071e-08, cumulative = -1.22451e-07
ExecutionTime = 167.79 s  ClockTime = 168 s

Time = 77

GAMG:  Solving for Ux, Initial residual = 0.00061993, Final residual = 1.19078e-06, No Iterations 2
GAMG:  Solving for Uy, Initial residual = 0.000773777, Final residual = 1.39414e-06, No Iterations 2
GAMG:  Solving for Uz, Initial residual = 0.00490512, Final residual = 9.94271e-06, No Iterations 2
GAMG:  Solving for p, Initial residual = 0.00970768, Final residual = 4.27799e-06, No Iterations 6
time step continuity errors : sum local = 1.43589e-05, global = -3.35897e-08, cumulative = -1.5604e-07
ExecutionTime = 169.86 s  ClockTime = 170 s

Time = 78

GAMG:  Solving for Ux, Initial residual = 0.000609278, Final residual = 1.16712e-06, No Iterations 2
GAMG:  Solving for Uy, Initial residual = 0.00076549, Final residual = 1.37073e-06, No Iterations 2
GAMG:  Solving for Uz, Initial residual = 0.00482208, Final residual = 9.74148e-06, No Iterations 2
GAMG:  Solving for p, Initial residual = 0.00953462, Final residual = 9.95665e-06, No Iterations 5
time step continuity errors : sum local = 3.34672e-05, global = -5.34752e-08, cumulative = -2.09516e-07
ExecutionTime = 171.39 s  ClockTime = 172 s

Time = 79

GAMG:  Solving for Ux, Initial residual = 0.000598953, Final residual = 1.14454e-06, No Iterations 2
GAMG:  Solving for Uy, Initial residual = 0.000757516, Final residual = 1.34785e-06, No Iterations 2
GAMG:  Solving for Uz, Initial residual = 0.00474063, Final residual = 9.5487e-06, No Iterations 2
GAMG:  Solving for p, Initial residual = 0.00936928, Final residual = 4.2851e-06, No Iterations 6
time step continuity errors : sum local = 1.4424e-05, global = 2.71167e-07, cumulative = 6.16515e-08
ExecutionTime = 172.93 s  ClockTime = 173 s

Time = 80

GAMG:  Solving for Ux, Initial residual = 0.000588865, Final residual = 1.12323e-06, No Iterations 2
GAMG:  Solving for Uy, Initial residual = 0.000749988, Final residual = 1.32616e-06, No Iterations 2
GAMG:  Solving for Uz, Initial residual = 0.00466247, Final residual = 9.3584e-06, No Iterations 2
GAMG:  Solving for p, Initial residual = 0.00920809, Final residual = 9.88316e-06, No Iterations 5
time step continuity errors : sum local = 3.33159e-05, global = -2.54526e-07, cumulative = -1.92875e-07
ExecutionTime = 174.49 s  ClockTime = 175 s

Time = 81

GAMG:  Solving for Ux, Initial residual = 0.000579096, Final residual = 1.10312e-06, No Iterations 2
GAMG:  Solving for Uy, Initial residual = 0.000742648, Final residual = 1.30454e-06, No Iterations 2
GAMG:  Solving for Uz, Initial residual = 0.00458631, Final residual = 9.17431e-06, No Iterations 2
GAMG:  Solving for p, Initial residual = 0.00905219, Final residual = 9.8003e-06, No Iterations 5
time step continuity errors : sum local = 3.30835e-05, global = -2.26933e-07, cumulative = -4.19808e-07
ExecutionTime = 176.01 s  ClockTime = 177 s

Time = 82

GAMG:  Solving for Ux, Initial residual = 0.000569643, Final residual = 1.08441e-06, No Iterations 2
GAMG:  Solving for Uy, Initial residual = 0.000735485, Final residual = 1.28398e-06, No Iterations 2
GAMG:  Solving for Uz, Initial residual = 0.00451092, Final residual = 9.00117e-06, No Iterations 2
GAMG:  Solving for p, Initial residual = 0.00890065, Final residual = 9.77503e-06, No Iterations 5
time step continuity errors : sum local = 3.3045e-05, global = -1.55969e-07, cumulative = -5.75777e-07
ExecutionTime = 177.67 s  ClockTime = 178 s

Time = 83

GAMG:  Solving for Ux, Initial residual = 0.000560473, Final residual = 1.06673e-06, No Iterations 2
GAMG:  Solving for Uy, Initial residual = 0.00072859, Final residual = 1.26367e-06, No Iterations 2
GAMG:  Solving for Uz, Initial residual = 0.00443747, Final residual = 8.83908e-06, No Iterations 2
GAMG:  Solving for p, Initial residual = 0.00875462, Final residual = 9.67229e-06, No Iterations 5
time step continuity errors : sum local = 3.27435e-05, global = -9.14119e-08, cumulative = -6.67189e-07
ExecutionTime = 179.38 s  ClockTime = 180 s

Time = 84

GAMG:  Solving for Ux, Initial residual = 0.00055155, Final residual = 1.04943e-06, No Iterations 2
GAMG:  Solving for Uy, Initial residual = 0.000721913, Final residual = 1.24376e-06, No Iterations 2
GAMG:  Solving for Uz, Initial residual = 0.00436614, Final residual = 8.68483e-06, No Iterations 2
GAMG:  Solving for p, Initial residual = 0.00861454, Final residual = 9.53429e-06, No Iterations 5
time step continuity errors : sum local = 3.23208e-05, global = -7.55303e-08, cumulative = -7.42719e-07
ExecutionTime = 181.33 s  ClockTime = 182 s

Time = 85

GAMG:  Solving for Ux, Initial residual = 0.000542931, Final residual = 1.03303e-06, No Iterations 2
GAMG:  Solving for Uy, Initial residual = 0.000715491, Final residual = 1.2247e-06, No Iterations 2
GAMG:  Solving for Uz, Initial residual = 0.00429633, Final residual = 8.53503e-06, No Iterations 2
GAMG:  Solving for p, Initial residual = 0.00847804, Final residual = 9.39872e-06, No Iterations 5
time step continuity errors : sum local = 3.19045e-05, global = -1.06311e-07, cumulative = -8.4903e-07
ExecutionTime = 183.16 s  ClockTime = 184 s

Time = 86

GAMG:  Solving for Ux, Initial residual = 0.000534575, Final residual = 1.01763e-06, No Iterations 2
GAMG:  Solving for Uy, Initial residual = 0.000709306, Final residual = 1.20682e-06, No Iterations 2
GAMG:  Solving for Uz, Initial residual = 0.00422839, Final residual = 8.38669e-06, No Iterations 2
GAMG:  Solving for p, Initial residual = 0.00834611, Final residual = 9.27707e-06, No Iterations 5
time step continuity errors : sum local = 3.15336e-05, global = -1.52497e-07, cumulative = -1.00153e-06
ExecutionTime = 184.76 s  ClockTime = 185 s

Time = 87

GAMG:  Solving for Ux, Initial residual = 0.000526411, Final residual = 1.00255e-06, No Iterations 2
GAMG:  Solving for Uy, Initial residual = 0.000703324, Final residual = 1.19001e-06, No Iterations 2
GAMG:  Solving for Uz, Initial residual = 0.00416084, Final residual = 8.24339e-06, No Iterations 2
GAMG:  Solving for p, Initial residual = 0.00821784, Final residual = 9.17116e-06, No Iterations 5
time step continuity errors : sum local = 3.12145e-05, global = -1.83236e-07, cumulative = -1.18476e-06
ExecutionTime = 186.47 s  ClockTime = 187 s

Time = 88

GAMG:  Solving for Ux, Initial residual = 0.00051847, Final residual = 9.87159e-07, No Iterations 2
GAMG:  Solving for Uy, Initial residual = 0.000697593, Final residual = 1.17408e-06, No Iterations 2
GAMG:  Solving for Uz, Initial residual = 0.00409381, Final residual = 8.10776e-06, No Iterations 2
GAMG:  Solving for p, Initial residual = 0.00809484, Final residual = 9.07645e-06, No Iterations 5
time step continuity errors : sum local = 3.09321e-05, global = -1.85837e-07, cumulative = -1.3706e-06
ExecutionTime = 188.13 s  ClockTime = 189 s

Time = 89

GAMG:  Solving for Ux, Initial residual = 0.000510673, Final residual = 9.71422e-07, No Iterations 2
GAMG:  Solving for Uy, Initial residual = 0.000692031, Final residual = 1.15898e-06, No Iterations 2
GAMG:  Solving for Uz, Initial residual = 0.0040279, Final residual = 7.98092e-06, No Iterations 2
GAMG:  Solving for p, Initial residual = 0.00797665, Final residual = 8.99113e-06, No Iterations 5
time step continuity errors : sum local = 3.06805e-05, global = -1.7166e-07, cumulative = -1.54226e-06
ExecutionTime = 189.85 s  ClockTime = 190 s

Time = 90

GAMG:  Solving for Ux, Initial residual = 0.000503017, Final residual = 9.55543e-07, No Iterations 2
GAMG:  Solving for Uy, Initial residual = 0.000686625, Final residual = 1.14473e-06, No Iterations 2
GAMG:  Solving for Uz, Initial residual = 0.0039635, Final residual = 7.8569e-06, No Iterations 2
GAMG:  Solving for p, Initial residual = 0.0078609, Final residual = 8.93008e-06, No Iterations 5
time step continuity errors : sum local = 3.05106e-05, global = -1.61796e-07, cumulative = -1.70406e-06
ExecutionTime = 191.78 s  ClockTime = 192 s

Time = 91

GAMG:  Solving for Ux, Initial residual = 0.00049552, Final residual = 9.39655e-07, No Iterations 2
GAMG:  Solving for Uy, Initial residual = 0.00068137, Final residual = 1.13114e-06, No Iterations 2
GAMG:  Solving for Uz, Initial residual = 0.00390003, Final residual = 7.73361e-06, No Iterations 2
GAMG:  Solving for p, Initial residual = 0.00774722, Final residual = 8.89238e-06, No Iterations 5
time step continuity errors : sum local = 3.04195e-05, global = -1.68564e-07, cumulative = -1.87262e-06
ExecutionTime = 193.74 s  ClockTime = 194 s

Time = 92

GAMG:  Solving for Ux, Initial residual = 0.000488161, Final residual = 9.23983e-07, No Iterations 2
GAMG:  Solving for Uy, Initial residual = 0.000676356, Final residual = 1.1179e-06, No Iterations 2
GAMG:  Solving for Uz, Initial residual = 0.00383777, Final residual = 7.60979e-06, No Iterations 2
GAMG:  Solving for p, Initial residual = 0.00763682, Final residual = 8.85695e-06, No Iterations 5
time step continuity errors : sum local = 3.03354e-05, global = -1.91583e-07, cumulative = -2.0642e-06
ExecutionTime = 195.26 s  ClockTime = 196 s

Time = 93

GAMG:  Solving for Ux, Initial residual = 0.000480896, Final residual = 9.08642e-07, No Iterations 2
GAMG:  Solving for Uy, Initial residual = 0.000671533, Final residual = 1.10509e-06, No Iterations 2
GAMG:  Solving for Uz, Initial residual = 0.00377659, Final residual = 7.48692e-06, No Iterations 2
GAMG:  Solving for p, Initial residual = 0.00752838, Final residual = 8.80442e-06, No Iterations 5
time step continuity errors : sum local = 3.0192e-05, global = -2.19979e-07, cumulative = -2.28418e-06
ExecutionTime = 196.98 s  ClockTime = 198 s

Time = 94

GAMG:  Solving for Ux, Initial residual = 0.000473715, Final residual = 8.93169e-07, No Iterations 2
GAMG:  Solving for Uy, Initial residual = 0.000666814, Final residual = 1.09214e-06, No Iterations 2
GAMG:  Solving for Uz, Initial residual = 0.00371577, Final residual = 7.36533e-06, No Iterations 2
GAMG:  Solving for p, Initial residual = 0.00742179, Final residual = 8.73341e-06, No Iterations 5
time step continuity errors : sum local = 2.99843e-05, global = -2.44827e-07, cumulative = -2.52901e-06
ExecutionTime = 198.58 s  ClockTime = 199 s

Time = 95

GAMG:  Solving for Ux, Initial residual = 0.00046666, Final residual = 8.77891e-07, No Iterations 2
GAMG:  Solving for Uy, Initial residual = 0.000662127, Final residual = 1.08013e-06, No Iterations 2
GAMG:  Solving for Uz, Initial residual = 0.00365601, Final residual = 7.24406e-06, No Iterations 2
GAMG:  Solving for p, Initial residual = 0.00731907, Final residual = 8.65536e-06, No Iterations 5
time step continuity errors : sum local = 2.97513e-05, global = -2.6387e-07, cumulative = -2.79288e-06
ExecutionTime = 200.14 s  ClockTime = 201 s

Time = 96

GAMG:  Solving for Ux, Initial residual = 0.000459676, Final residual = 9.90179e-06, No Iterations 1
GAMG:  Solving for Uy, Initial residual = 0.000657519, Final residual = 1.0682e-06, No Iterations 2
GAMG:  Solving for Uz, Initial residual = 0.00359712, Final residual = 7.12375e-06, No Iterations 2
GAMG:  Solving for p, Initial residual = 0.00721641, Final residual = 8.44583e-06, No Iterations 5
time step continuity errors : sum local = 2.90647e-05, global = -3.06586e-07, cumulative = -3.09947e-06
ExecutionTime = 201.78 s  ClockTime = 202 s

Time = 97

GAMG:  Solving for Ux, Initial residual = 0.000453281, Final residual = 9.73276e-06, No Iterations 1
GAMG:  Solving for Uy, Initial residual = 0.000652962, Final residual = 1.05619e-06, No Iterations 2
GAMG:  Solving for Uz, Initial residual = 0.00353108, Final residual = 6.99081e-06, No Iterations 2
GAMG:  Solving for p, Initial residual = 0.00711466, Final residual = 8.40014e-06, No Iterations 5
time step continuity errors : sum local = 2.89405e-05, global = -3.18465e-07, cumulative = -3.41793e-06
ExecutionTime = 203.45 s  ClockTime = 204 s

Time = 98

GAMG:  Solving for Ux, Initial residual = 0.000446819, Final residual = 9.58219e-06, No Iterations 1
GAMG:  Solving for Uy, Initial residual = 0.000648535, Final residual = 1.04657e-06, No Iterations 2
GAMG:  Solving for Uz, Initial residual = 0.00346774, Final residual = 6.86349e-06, No Iterations 2
GAMG:  Solving for p, Initial residual = 0.00701664, Final residual = 8.45802e-06, No Iterations 5
time step continuity errors : sum local = 2.91728e-05, global = -3.10135e-07, cumulative = -3.72807e-06
ExecutionTime = 204.99 s  ClockTime = 206 s

Time = 99

GAMG:  Solving for Ux, Initial residual = 0.00044005, Final residual = 9.4271e-06, No Iterations 1
GAMG:  Solving for Uy, Initial residual = 0.000644149, Final residual = 1.03835e-06, No Iterations 2
GAMG:  Solving for Uz, Initial residual = 0.00341195, Final residual = 6.751e-06, No Iterations 2
GAMG:  Solving for p, Initial residual = 0.00692255, Final residual = 8.48959e-06, No Iterations 5
time step continuity errors : sum local = 2.93142e-05, global = -3.10819e-07, cumulative = -4.03888e-06
ExecutionTime = 206.56 s  ClockTime = 207 s

Time = 100

GAMG:  Solving for Ux, Initial residual = 0.000433173, Final residual = 9.27015e-06, No Iterations 1
GAMG:  Solving for Uy, Initial residual = 0.00063984, Final residual = 1.03115e-06, No Iterations 2
GAMG:  Solving for Uz, Initial residual = 0.00336008, Final residual = 6.64612e-06, No Iterations 2
GAMG:  Solving for p, Initial residual = 0.00683188, Final residual = 8.41983e-06, No Iterations 5
time step continuity errors : sum local = 2.91052e-05, global = -3.35192e-07, cumulative = -4.37408e-06
ExecutionTime = 209.92 s  ClockTime = 211 s

Time = 101

GAMG:  Solving for Ux, Initial residual = 0.00042649, Final residual = 9.11807e-06, No Iterations 1
GAMG:  Solving for Uy, Initial residual = 0.000635534, Final residual = 1.02486e-06, No Iterations 2
GAMG:  Solving for Uz, Initial residual = 0.00330703, Final residual = 6.53728e-06, No Iterations 2
GAMG:  Solving for p, Initial residual = 0.00674356, Final residual = 8.29826e-06, No Iterations 5
time step continuity errors : sum local = 2.8716e-05, global = -3.69903e-07, cumulative = -4.74398e-06
ExecutionTime = 211.57 s  ClockTime = 212 s

Time = 102

GAMG:  Solving for Ux, Initial residual = 0.000420098, Final residual = 8.97546e-06, No Iterations 1
GAMG:  Solving for Uy, Initial residual = 0.000631303, Final residual = 1.01906e-06, No Iterations 2
GAMG:  Solving for Uz, Initial residual = 0.0032508, Final residual = 6.42375e-06, No Iterations 2
GAMG:  Solving for p, Initial residual = 0.00665591, Final residual = 8.19822e-06, No Iterations 5
time step continuity errors : sum local = 2.84001e-05, global = -3.94254e-07, cumulative = -5.13823e-06
ExecutionTime = 213.18 s  ClockTime = 214 s

Time = 103

GAMG:  Solving for Ux, Initial residual = 0.000413857, Final residual = 8.8376e-06, No Iterations 1
GAMG:  Solving for Uy, Initial residual = 0.000627092, Final residual = 1.01341e-06, No Iterations 2
GAMG:  Solving for Uz, Initial residual = 0.00319368, Final residual = 6.30736e-06, No Iterations 2
GAMG:  Solving for p, Initial residual = 0.00656972, Final residual = 8.14568e-06, No Iterations 5
time step continuity errors : sum local = 2.82478e-05, global = -4.00832e-07, cumulative = -5.53906e-06
ExecutionTime = 214.73 s  ClockTime = 215 s

Time = 104

GAMG:  Solving for Ux, Initial residual = 0.000407605, Final residual = 8.70018e-06, No Iterations 1
GAMG:  Solving for Uy, Initial residual = 0.000622883, Final residual = 1.00831e-06, No Iterations 2
GAMG:  Solving for Uz, Initial residual = 0.00313848, Final residual = 6.19503e-06, No Iterations 2
GAMG:  Solving for p, Initial residual = 0.00648542, Final residual = 8.11699e-06, No Iterations 5
time step continuity errors : sum local = 2.81776e-05, global = -3.95601e-07, cumulative = -5.93467e-06
ExecutionTime = 216.35 s  ClockTime = 217 s

Time = 105

GAMG:  Solving for Ux, Initial residual = 0.00040133, Final residual = 8.5638e-06, No Iterations 1
GAMG:  Solving for Uy, Initial residual = 0.000618712, Final residual = 1.00358e-06, No Iterations 2
GAMG:  Solving for Uz, Initial residual = 0.0030862, Final residual = 6.08548e-06, No Iterations 2
GAMG:  Solving for p, Initial residual = 0.00640267, Final residual = 8.07225e-06, No Iterations 5
time step continuity errors : sum local = 2.80511e-05, global = -3.88906e-07, cumulative = -6.32357e-06
ExecutionTime = 218.14 s  ClockTime = 219 s

Time = 106

GAMG:  Solving for Ux, Initial residual = 0.000395119, Final residual = 8.43016e-06, No Iterations 1
GAMG:  Solving for Uy, Initial residual = 0.000614559, Final residual = 9.99116e-07, No Iterations 2
GAMG:  Solving for Uz, Initial residual = 0.00303502, Final residual = 5.97748e-06, No Iterations 2
GAMG:  Solving for p, Initial residual = 0.00632189, Final residual = 7.99316e-06, No Iterations 5
time step continuity errors : sum local = 2.78045e-05, global = -3.8543e-07, cumulative = -6.709e-06
ExecutionTime = 220.05 s  ClockTime = 221 s

Time = 107

GAMG:  Solving for Ux, Initial residual = 0.000389037, Final residual = 8.30223e-06, No Iterations 1
GAMG:  Solving for Uy, Initial residual = 0.000610382, Final residual = 9.94755e-07, No Iterations 2
GAMG:  Solving for Uz, Initial residual = 0.00298337, Final residual = 5.86929e-06, No Iterations 2
GAMG:  Solving for p, Initial residual = 0.00624128, Final residual = 7.89188e-06, No Iterations 5
time step continuity errors : sum local = 2.74797e-05, global = -3.83748e-07, cumulative = -7.09275e-06
ExecutionTime = 221.6 s  ClockTime = 222 s

Time = 108

GAMG:  Solving for Ux, Initial residual = 0.000383075, Final residual = 8.17948e-06, No Iterations 1
GAMG:  Solving for Uy, Initial residual = 0.000606207, Final residual = 9.90352e-07, No Iterations 2
GAMG:  Solving for Uz, Initial residual = 0.00293132, Final residual = 5.75981e-06, No Iterations 2
GAMG:  Solving for p, Initial residual = 0.00616129, Final residual = 7.7923e-06, No Iterations 5
time step continuity errors : sum local = 2.71599e-05, global = -3.78868e-07, cumulative = -7.47162e-06
ExecutionTime = 223.21 s  ClockTime = 224 s

Time = 109

GAMG:  Solving for Ux, Initial residual = 0.000377225, Final residual = 8.05863e-06, No Iterations 1
GAMG:  Solving for Uy, Initial residual = 0.000601953, Final residual = 9.85949e-07, No Iterations 2
GAMG:  Solving for Uz, Initial residual = 0.00287993, Final residual = 5.65123e-06, No Iterations 2
GAMG:  Solving for p, Initial residual = 0.00608181, Final residual = 7.70742e-06, No Iterations 5
time step continuity errors : sum local = 2.68903e-05, global = -3.68808e-07, cumulative = -7.84043e-06
ExecutionTime = 224.71 s  ClockTime = 225 s

Time = 110

GAMG:  Solving for Ux, Initial residual = 0.000371426, Final residual = 7.93808e-06, No Iterations 1
GAMG:  Solving for Uy, Initial residual = 0.000597656, Final residual = 9.81818e-07, No Iterations 2
GAMG:  Solving for Uz, Initial residual = 0.00282971, Final residual = 5.54431e-06, No Iterations 2
GAMG:  Solving for p, Initial residual = 0.00600256, Final residual = 7.63214e-06, No Iterations 5
time step continuity errors : sum local = 2.66534e-05, global = -3.54703e-07, cumulative = -8.19513e-06
ExecutionTime = 226.21 s  ClockTime = 227 s

Time = 111

GAMG:  Solving for Ux, Initial residual = 0.000365696, Final residual = 7.81829e-06, No Iterations 1
GAMG:  Solving for Uy, Initial residual = 0.000593324, Final residual = 9.77677e-07, No Iterations 2
GAMG:  Solving for Uz, Initial residual = 0.00278013, Final residual = 5.44192e-06, No Iterations 2
GAMG:  Solving for p, Initial residual = 0.00592474, Final residual = 7.55231e-06, No Iterations 5
time step continuity errors : sum local = 2.63998e-05, global = -3.41369e-07, cumulative = -8.5365e-06
ExecutionTime = 227.77 s  ClockTime = 229 s

Time = 112

GAMG:  Solving for Ux, Initial residual = 0.000360042, Final residual = 7.69912e-06, No Iterations 1
GAMG:  Solving for Uy, Initial residual = 0.000588957, Final residual = 9.73473e-07, No Iterations 2
GAMG:  Solving for Uz, Initial residual = 0.0027314, Final residual = 5.3414e-06, No Iterations 2
GAMG:  Solving for p, Initial residual = 0.00584783, Final residual = 7.4595e-06, No Iterations 5
time step continuity errors : sum local = 2.60998e-05, global = -3.32768e-07, cumulative = -8.86927e-06
ExecutionTime = 229.33 s  ClockTime = 230 s

Time = 113

GAMG:  Solving for Ux, Initial residual = 0.000354497, Final residual = 7.58026e-06, No Iterations 1
GAMG:  Solving for Uy, Initial residual = 0.000584549, Final residual = 9.69381e-07, No Iterations 2
GAMG:  Solving for Uz, Initial residual = 0.00268285, Final residual = 5.24279e-06, No Iterations 2
GAMG:  Solving for p, Initial residual = 0.00577232, Final residual = 7.35559e-06, No Iterations 5
time step continuity errors : sum local = 2.576e-05, global = -3.31075e-07, cumulative = -9.20034e-06
ExecutionTime = 230.82 s  ClockTime = 232 s

Time = 114

GAMG:  Solving for Ux, Initial residual = 0.000349074, Final residual = 7.46263e-06, No Iterations 1
GAMG:  Solving for Uy, Initial residual = 0.000580079, Final residual = 9.65143e-07, No Iterations 2
GAMG:  Solving for Uz, Initial residual = 0.00263485, Final residual = 5.14735e-06, No Iterations 2
GAMG:  Solving for p, Initial residual = 0.00569761, Final residual = 7.24881e-06, No Iterations 5
time step continuity errors : sum local = 2.54091e-05, global = -3.37778e-07, cumulative = -9.53812e-06
ExecutionTime = 232.31 s  ClockTime = 233 s

Time = 115

GAMG:  Solving for Ux, Initial residual = 0.000343751, Final residual = 7.34631e-06, No Iterations 1
GAMG:  Solving for Uy, Initial residual = 0.000575536, Final residual = 9.60215e-07, No Iterations 2
GAMG:  Solving for Uz, Initial residual = 0.00258757, Final residual = 5.05406e-06, No Iterations 2
GAMG:  Solving for p, Initial residual = 0.00562369, Final residual = 7.14305e-06, No Iterations 5
time step continuity errors : sum local = 2.50608e-05, global = -3.55271e-07, cumulative = -9.89339e-06
ExecutionTime = 233.91 s  ClockTime = 235 s

Time = 116

GAMG:  Solving for Ux, Initial residual = 0.000338542, Final residual = 7.2326e-06, No Iterations 1
GAMG:  Solving for Uy, Initial residual = 0.000570941, Final residual = 9.5501e-07, No Iterations 2
GAMG:  Solving for Uz, Initial residual = 0.00254122, Final residual = 4.96435e-06, No Iterations 2
GAMG:  Solving for p, Initial residual = 0.00555043, Final residual = 7.03851e-06, No Iterations 5
time step continuity errors : sum local = 2.47158e-05, global = -3.85942e-07, cumulative = -1.02793e-05
ExecutionTime = 235.41 s  ClockTime = 236 s

Time = 117

GAMG:  Solving for Ux, Initial residual = 0.000333431, Final residual = 7.12092e-06, No Iterations 1
GAMG:  Solving for Uy, Initial residual = 0.000566287, Final residual = 9.49517e-07, No Iterations 2
GAMG:  Solving for Uz, Initial residual = 0.00249566, Final residual = 4.87932e-06, No Iterations 2
GAMG:  Solving for p, Initial residual = 0.00547764, Final residual = 6.9313e-06, No Iterations 5
time step continuity errors : sum local = 2.43605e-05, global = -4.31912e-07, cumulative = -1.07112e-05
ExecutionTime = 236.95 s  ClockTime = 238 s

Time = 118

GAMG:  Solving for Ux, Initial residual = 0.000328433, Final residual = 7.01152e-06, No Iterations 1
GAMG:  Solving for Uy, Initial residual = 0.000561583, Final residual = 9.43766e-07, No Iterations 2
GAMG:  Solving for Uz, Initial residual = 0.00245109, Final residual = 4.79767e-06, No Iterations 2
GAMG:  Solving for p, Initial residual = 0.00540504, Final residual = 6.82148e-06, No Iterations 5
time step continuity errors : sum local = 2.39951e-05, global = -4.94752e-07, cumulative = -1.1206e-05
ExecutionTime = 238.56 s  ClockTime = 239 s

Time = 119

GAMG:  Solving for Ux, Initial residual = 0.000323538, Final residual = 6.90365e-06, No Iterations 1
GAMG:  Solving for Uy, Initial residual = 0.000556836, Final residual = 9.3795e-07, No Iterations 2
GAMG:  Solving for Uz, Initial residual = 0.00240755, Final residual = 4.71879e-06, No Iterations 2
GAMG:  Solving for p, Initial residual = 0.00533351, Final residual = 6.71305e-06, No Iterations 5
time step continuity errors : sum local = 2.36336e-05, global = -5.74018e-07, cumulative = -1.178e-05
ExecutionTime = 240.02 s  ClockTime = 241 s

Time = 120

GAMG:  Solving for Ux, Initial residual = 0.000318749, Final residual = 6.79719e-06, No Iterations 1
GAMG:  Solving for Uy, Initial residual = 0.000552078, Final residual = 9.32006e-07, No Iterations 2
GAMG:  Solving for Uz, Initial residual = 0.0023652, Final residual = 4.64342e-06, No Iterations 2
GAMG:  Solving for p, Initial residual = 0.00526297, Final residual = 6.61021e-06, No Iterations 5
time step continuity errors : sum local = 2.32908e-05, global = -6.66987e-07, cumulative = -1.2447e-05
ExecutionTime = 241.5 s  ClockTime = 242 s

Time = 121

GAMG:  Solving for Ux, Initial residual = 0.000314062, Final residual = 6.69279e-06, No Iterations 1
GAMG:  Solving for Uy, Initial residual = 0.00054732, Final residual = 9.25896e-07, No Iterations 2
GAMG:  Solving for Uz, Initial residual = 0.00232389, Final residual = 4.57028e-06, No Iterations 2
GAMG:  Solving for p, Initial residual = 0.00519327, Final residual = 6.51621e-06, No Iterations 5
time step continuity errors : sum local = 2.29783e-05, global = -7.69345e-07, cumulative = -1.32163e-05
ExecutionTime = 243.15 s  ClockTime = 244 s

Time = 122

GAMG:  Solving for Ux, Initial residual = 0.000309477, Final residual = 6.59109e-06, No Iterations 1
GAMG:  Solving for Uy, Initial residual = 0.000542545, Final residual = 9.19437e-07, No Iterations 2
GAMG:  Solving for Uz, Initial residual = 0.00228373, Final residual = 4.4989e-06, No Iterations 2
GAMG:  Solving for p, Initial residual = 0.00512486, Final residual = 6.42966e-06, No Iterations 5
time step continuity errors : sum local = 2.26911e-05, global = -8.75146e-07, cumulative = -1.40915e-05
ExecutionTime = 244.64 s  ClockTime = 246 s

Time = 123

GAMG:  Solving for Ux, Initial residual = 0.000304988, Final residual = 6.49086e-06, No Iterations 1
GAMG:  Solving for Uy, Initial residual = 0.000537759, Final residual = 9.1284e-07, No Iterations 2
GAMG:  Solving for Uz, Initial residual = 0.00224473, Final residual = 4.42987e-06, No Iterations 2
GAMG:  Solving for p, Initial residual = 0.00505734, Final residual = 6.34549e-06, No Iterations 5
time step continuity errors : sum local = 2.24116e-05, global = -9.77418e-07, cumulative = -1.50689e-05
ExecutionTime = 246.14 s  ClockTime = 247 s

Time = 124

GAMG:  Solving for Ux, Initial residual = 0.000300603, Final residual = 6.39282e-06, No Iterations 1
GAMG:  Solving for Uy, Initial residual = 0.000532898, Final residual = 9.06223e-07, No Iterations 2
GAMG:  Solving for Uz, Initial residual = 0.00220688, Final residual = 4.36206e-06, No Iterations 2
GAMG:  Solving for p, Initial residual = 0.00499066, Final residual = 6.26153e-06, No Iterations 5
time step continuity errors : sum local = 2.2132e-05, global = -1.06775e-06, cumulative = -1.61367e-05
ExecutionTime = 247.71 s  ClockTime = 249 s

Time = 125

GAMG:  Solving for Ux, Initial residual = 0.00029631, Final residual = 6.2979e-06, No Iterations 1
GAMG:  Solving for Uy, Initial residual = 0.000527993, Final residual = 8.99754e-07, No Iterations 2
GAMG:  Solving for Uz, Initial residual = 0.00217012, Final residual = 4.29322e-06, No Iterations 2
GAMG:  Solving for p, Initial residual = 0.00492532, Final residual = 6.1737e-06, No Iterations 5
time step continuity errors : sum local = 2.18378e-05, global = -1.13956e-06, cumulative = -1.72762e-05
ExecutionTime = 249.31 s  ClockTime = 250 s

Time = 126

GAMG:  Solving for Ux, Initial residual = 0.000292095, Final residual = 6.20546e-06, No Iterations 1
GAMG:  Solving for Uy, Initial residual = 0.000523053, Final residual = 9.97749e-06, No Iterations 1
GAMG:  Solving for Uz, Initial residual = 0.00213463, Final residual = 4.22603e-06, No Iterations 2
GAMG:  Solving for p, Initial residual = 0.0048582, Final residual = 6.11997e-06, No Iterations 5
time step continuity errors : sum local = 2.16636e-05, global = -1.35744e-06, cumulative = -1.86337e-05
ExecutionTime = 250.76 s  ClockTime = 252 s

Time = 127

GAMG:  Solving for Ux, Initial residual = 0.000287871, Final residual = 6.11246e-06, No Iterations 1
GAMG:  Solving for Uy, Initial residual = 0.000518276, Final residual = 9.87196e-06, No Iterations 1
GAMG:  Solving for Uz, Initial residual = 0.00210003, Final residual = 4.15826e-06, No Iterations 2
GAMG:  Solving for p, Initial residual = 0.00479089, Final residual = 6.01597e-06, No Iterations 5
time step continuity errors : sum local = 2.13111e-05, global = -1.31899e-06, cumulative = -1.99526e-05
ExecutionTime = 252.26 s  ClockTime = 253 s

Time = 128

GAMG:  Solving for Ux, Initial residual = 0.000283747, Final residual = 6.02246e-06, No Iterations 1
GAMG:  Solving for Uy, Initial residual = 0.000513441, Final residual = 9.78638e-06, No Iterations 1
GAMG:  Solving for Uz, Initial residual = 0.00206606, Final residual = 4.0915e-06, No Iterations 2
GAMG:  Solving for p, Initial residual = 0.00472499, Final residual = 5.89827e-06, No Iterations 5
time step continuity errors : sum local = 2.0909e-05, global = -1.21492e-06, cumulative = -2.11676e-05
ExecutionTime = 253.81 s  ClockTime = 255 s

Time = 129

GAMG:  Solving for Ux, Initial residual = 0.000279777, Final residual = 5.93693e-06, No Iterations 1
GAMG:  Solving for Uy, Initial residual = 0.000508448, Final residual = 9.70442e-06, No Iterations 1
GAMG:  Solving for Uz, Initial residual = 0.00203273, Final residual = 4.0246e-06, No Iterations 2
GAMG:  Solving for p, Initial residual = 0.0046609, Final residual = 5.79265e-06, No Iterations 5
time step continuity errors : sum local = 2.05487e-05, global = -1.15517e-06, cumulative = -2.23227e-05
ExecutionTime = 255.34 s  ClockTime = 256 s

Time = 130

GAMG:  Solving for Ux, Initial residual = 0.000275919, Final residual = 5.85492e-06, No Iterations 1
GAMG:  Solving for Uy, Initial residual = 0.000503422, Final residual = 9.62359e-06, No Iterations 1
GAMG:  Solving for Uz, Initial residual = 0.00199989, Final residual = 3.9582e-06, No Iterations 2
GAMG:  Solving for p, Initial residual = 0.00459815, Final residual = 5.69501e-06, No Iterations 5
time step continuity errors : sum local = 2.02156e-05, global = -1.15077e-06, cumulative = -2.34735e-05
ExecutionTime = 256.82 s  ClockTime = 258 s

Time = 131

GAMG:  Solving for Ux, Initial residual = 0.000272078, Final residual = 5.77364e-06, No Iterations 1
GAMG:  Solving for Uy, Initial residual = 0.00049842, Final residual = 9.54529e-06, No Iterations 1
GAMG:  Solving for Uz, Initial residual = 0.00196703, Final residual = 3.89259e-06, No Iterations 2
GAMG:  Solving for p, Initial residual = 0.00453619, Final residual = 5.59972e-06, No Iterations 5
time step continuity errors : sum local = 1.98903e-05, global = -1.13119e-06, cumulative = -2.46047e-05
ExecutionTime = 258.38 s  ClockTime = 259 s

Time = 132

GAMG:  Solving for Ux, Initial residual = 0.000268208, Final residual = 5.69165e-06, No Iterations 1
GAMG:  Solving for Uy, Initial residual = 0.000493447, Final residual = 9.46759e-06, No Iterations 1
GAMG:  Solving for Uz, Initial residual = 0.0019341, Final residual = 3.82686e-06, No Iterations 2
GAMG:  Solving for p, Initial residual = 0.004475, Final residual = 5.50088e-06, No Iterations 5
time step continuity errors : sum local = 1.95518e-05, global = -1.08896e-06, cumulative = -2.56937e-05
ExecutionTime = 259.86 s  ClockTime = 261 s

Time = 133

GAMG:  Solving for Ux, Initial residual = 0.000264331, Final residual = 5.60922e-06, No Iterations 1
GAMG:  Solving for Uy, Initial residual = 0.000488468, Final residual = 9.38928e-06, No Iterations 1
GAMG:  Solving for Uz, Initial residual = 0.00190102, Final residual = 3.76107e-06, No Iterations 2
GAMG:  Solving for p, Initial residual = 0.00441357, Final residual = 5.39881e-06, No Iterations 5
time step continuity errors : sum local = 1.92011e-05, global = -1.06274e-06, cumulative = -2.67564e-05
ExecutionTime = 261.31 s  ClockTime = 262 s

Time = 134

GAMG:  Solving for Ux, Initial residual = 0.000260476, Final residual = 5.52764e-06, No Iterations 1
GAMG:  Solving for Uy, Initial residual = 0.000483463, Final residual = 9.31137e-06, No Iterations 1
GAMG:  Solving for Uz, Initial residual = 0.00186762, Final residual = 3.69657e-06, No Iterations 2
GAMG:  Solving for p, Initial residual = 0.0043523, Final residual = 5.29523e-06, No Iterations 5
time step continuity errors : sum local = 1.88443e-05, global = -1.04113e-06, cumulative = -2.77975e-05
ExecutionTime = 262.88 s  ClockTime = 264 s

Time = 135

GAMG:  Solving for Ux, Initial residual = 0.000256639, Final residual = 5.44742e-06, No Iterations 1
GAMG:  Solving for Uy, Initial residual = 0.000478415, Final residual = 9.23366e-06, No Iterations 1
GAMG:  Solving for Uz, Initial residual = 0.0018339, Final residual = 3.63223e-06, No Iterations 2
GAMG:  Solving for p, Initial residual = 0.00429121, Final residual = 5.19191e-06, No Iterations 5
time step continuity errors : sum local = 1.84876e-05, global = -1.00716e-06, cumulative = -2.88047e-05
ExecutionTime = 264.38 s  ClockTime = 265 s

Time = 136

GAMG:  Solving for Ux, Initial residual = 0.00025281, Final residual = 5.36818e-06, No Iterations 1
GAMG:  Solving for Uy, Initial residual = 0.000473349, Final residual = 9.15662e-06, No Iterations 1
GAMG:  Solving for Uz, Initial residual = 0.00179975, Final residual = 3.5684e-06, No Iterations 2
GAMG:  Solving for p, Initial residual = 0.00422999, Final residual = 5.09189e-06, No Iterations 5
time step continuity errors : sum local = 1.81418e-05, global = -9.62141e-07, cumulative = -2.97668e-05
ExecutionTime = 265.83 s  ClockTime = 267 s

Time = 137

GAMG:  Solving for Ux, Initial residual = 0.000248953, Final residual = 5.28865e-06, No Iterations 1
GAMG:  Solving for Uy, Initial residual = 0.000468278, Final residual = 9.07852e-06, No Iterations 1
GAMG:  Solving for Uz, Initial residual = 0.00176524, Final residual = 3.50515e-06, No Iterations 2
GAMG:  Solving for p, Initial residual = 0.00416865, Final residual = 4.99549e-06, No Iterations 5
time step continuity errors : sum local = 1.78083e-05, global = -9.23221e-07, cumulative = -3.069e-05
ExecutionTime = 267.31 s  ClockTime = 268 s

Time = 138

GAMG:  Solving for Ux, Initial residual = 0.000245068, Final residual = 5.20844e-06, No Iterations 1
GAMG:  Solving for Uy, Initial residual = 0.000463193, Final residual = 9.00053e-06, No Iterations 1
GAMG:  Solving for Uz, Initial residual = 0.00173062, Final residual = 3.44176e-06, No Iterations 2
GAMG:  Solving for p, Initial residual = 0.00410752, Final residual = 4.9021e-06, No Iterations 5
time step continuity errors : sum local = 1.7485e-05, global = -9.09156e-07, cumulative = -3.15992e-05
ExecutionTime = 268.85 s  ClockTime = 270 s

Time = 139

GAMG:  Solving for Ux, Initial residual = 0.000241172, Final residual = 5.12795e-06, No Iterations 1
GAMG:  Solving for Uy, Initial residual = 0.000458078, Final residual = 8.92225e-06, No Iterations 1
GAMG:  Solving for Uz, Initial residual = 0.00169602, Final residual = 3.37831e-06, No Iterations 2
GAMG:  Solving for p, Initial residual = 0.00404642, Final residual = 4.80963e-06, No Iterations 5
time step continuity errors : sum local = 1.71642e-05, global = -9.15343e-07, cumulative = -3.25145e-05
ExecutionTime = 270.34 s  ClockTime = 271 s

Time = 140

GAMG:  Solving for Ux, Initial residual = 0.000237267, Final residual = 5.04696e-06, No Iterations 1
GAMG:  Solving for Uy, Initial residual = 0.000452937, Final residual = 8.84338e-06, No Iterations 1
GAMG:  Solving for Uz, Initial residual = 0.00166152, Final residual = 3.3143e-06, No Iterations 2
GAMG:  Solving for p, Initial residual = 0.00398509, Final residual = 4.71582e-06, No Iterations 5
time step continuity errors : sum local = 1.68379e-05, global = -9.22246e-07, cumulative = -3.34368e-05
ExecutionTime = 271.79 s  ClockTime = 273 s

Time = 141

GAMG:  Solving for Ux, Initial residual = 0.000233357, Final residual = 4.96648e-06, No Iterations 1
GAMG:  Solving for Uy, Initial residual = 0.000447807, Final residual = 8.76382e-06, No Iterations 1
GAMG:  Solving for Uz, Initial residual = 0.00162718, Final residual = 3.25017e-06, No Iterations 2
GAMG:  Solving for p, Initial residual = 0.00392385, Final residual = 4.62144e-06, No Iterations 5
time step continuity errors : sum local = 1.6509e-05, global = -9.22224e-07, cumulative = -3.4359e-05
ExecutionTime = 273.29 s  ClockTime = 274 s

Time = 142

GAMG:  Solving for Ux, Initial residual = 0.000229434, Final residual = 4.88561e-06, No Iterations 1
[...]

Time = 335

GAMG:  Solving for Ux, Initial residual = 4.11419e-06, Final residual = 4.11419e-06, No Iterations 0
GAMG:  Solving for Uy, Initial residual = 7.494e-06, Final residual = 7.494e-06, No Iterations 0
GAMG:  Solving for Uz, Initial residual = 1.06628e-05, Final residual = 2.79051e-07, No Iterations 1
GAMG:  Solving for p, Initial residual = 1.98284e-05, Final residual = 1.78296e-06, No Iterations 1
time step continuity errors : sum local = 6.42199e-06, global = 4.81778e-08, cumulative = -1.8971e-05
ExecutionTime = 570.93 s  ClockTime = 573 s

Time = 336

GAMG:  Solving for Ux, Initial residual = 4.06486e-06, Final residual = 4.06486e-06, No Iterations 0
GAMG:  Solving for Uy, Initial residual = 7.43778e-06, Final residual = 7.43778e-06, No Iterations 0
GAMG:  Solving for Uz, Initial residual = 1.01917e-05, Final residual = 2.64265e-07, No Iterations 1
GAMG:  Solving for p, Initial residual = 2.0025e-05, Final residual = 2.07053e-06, No Iterations 1
time step continuity errors : sum local = 7.45777e-06, global = 2.59813e-08, cumulative = -1.8945e-05
ExecutionTime = 572.31 s  ClockTime = 575 s

Time = 337

GAMG:  Solving for Ux, Initial residual = 4.04236e-06, Final residual = 4.04236e-06, No Iterations 0
GAMG:  Solving for Uy, Initial residual = 7.37884e-06, Final residual = 7.37884e-06, No Iterations 0
GAMG:  Solving for Uz, Initial residual = 9.40231e-06, Final residual = 9.40231e-06, No Iterations 0
GAMG:  Solving for p, Initial residual = 1.96119e-05, Final residual = 2.74327e-06, No Iterations 1
time step continuity errors : sum local = 9.88084e-06, global = 1.48612e-08, cumulative = -1.89302e-05
ExecutionTime = 573.73 s  ClockTime = 576 s

Time = 338

GAMG:  Solving for Ux, Initial residual = 3.92511e-06, Final residual = 3.92511e-06, No Iterations 0
GAMG:  Solving for Uy, Initial residual = 7.31896e-06, Final residual = 7.31896e-06, No Iterations 0
GAMG:  Solving for Uz, Initial residual = 1.04825e-05, Final residual = 2.70893e-07, No Iterations 1
GAMG:  Solving for p, Initial residual = 1.87099e-05, Final residual = 1.63159e-06, No Iterations 1
time step continuity errors : sum local = 5.87675e-06, global = -3.44771e-09, cumulative = -1.89336e-05
ExecutionTime = 574.95 s  ClockTime = 577 s

Time = 339

GAMG:  Solving for Ux, Initial residual = 3.86662e-06, Final residual = 3.86662e-06, No Iterations 0
GAMG:  Solving for Uy, Initial residual = 7.25883e-06, Final residual = 7.25883e-06, No Iterations 0
GAMG:  Solving for Uz, Initial residual = 1.03984e-05, Final residual = 2.6777e-07, No Iterations 1
GAMG:  Solving for p, Initial residual = 1.88235e-05, Final residual = 1.65342e-06, No Iterations 1
time step continuity errors : sum local = 5.95536e-06, global = -1.75225e-08, cumulative = -1.89511e-05
ExecutionTime = 576.1 s  ClockTime = 578 s

Time = 340

GAMG:  Solving for Ux, Initial residual = 3.84298e-06, Final residual = 3.84298e-06, No Iterations 0
GAMG:  Solving for Uy, Initial residual = 7.19747e-06, Final residual = 7.19747e-06, No Iterations 0
GAMG:  Solving for Uz, Initial residual = 9.79871e-06, Final residual = 9.79871e-06, No Iterations 0
GAMG:  Solving for p, Initial residual = 1.88798e-05, Final residual = 2.75582e-06, No Iterations 1
time step continuity errors : sum local = 9.92601e-06, global = -1.89739e-09, cumulative = -1.8953e-05
ExecutionTime = 579.02 s  ClockTime = 581 s

Time = 341

GAMG:  Solving for Ux, Initial residual = 3.74467e-06, Final residual = 3.74467e-06, No Iterations 0
GAMG:  Solving for Uy, Initial residual = 7.13791e-06, Final residual = 7.13791e-06, No Iterations 0
GAMG:  Solving for Uz, Initial residual = 1.07716e-05, Final residual = 2.79815e-07, No Iterations 1
GAMG:  Solving for p, Initial residual = 1.79735e-05, Final residual = 1.40783e-06, No Iterations 1
time step continuity errors : sum local = 5.07075e-06, global = -1.05417e-08, cumulative = -1.89636e-05
ExecutionTime = 580.57 s  ClockTime = 583 s

Time = 342

GAMG:  Solving for Ux, Initial residual = 3.70943e-06, Final residual = 3.70943e-06, No Iterations 0
GAMG:  Solving for Uy, Initial residual = 7.07806e-06, Final residual = 7.07806e-06, No Iterations 0
GAMG:  Solving for Uz, Initial residual = 1.04643e-05, Final residual = 2.70766e-07, No Iterations 1
GAMG:  Solving for p, Initial residual = 1.86809e-05, Final residual = 2.11527e-06, No Iterations 1
time step continuity errors : sum local = 7.61884e-06, global = 1.85873e-09, cumulative = -1.89617e-05
ExecutionTime = 582.47 s  ClockTime = 585 s

Time = 343

GAMG:  Solving for Ux, Initial residual = 3.71892e-06, Final residual = 3.71892e-06, No Iterations 0
GAMG:  Solving for Uy, Initial residual = 7.01845e-06, Final residual = 7.01845e-06, No Iterations 0
GAMG:  Solving for Uz, Initial residual = 9.48012e-06, Final residual = 9.48012e-06, No Iterations 0
GAMG:  Solving for p, Initial residual = 1.78051e-05, Final residual = 2.15546e-06, No Iterations 1
time step continuity errors : sum local = 7.76358e-06, global = 1.81419e-08, cumulative = -1.89436e-05
ExecutionTime = 583.6 s  ClockTime = 586 s

Time = 344

GAMG:  Solving for Ux, Initial residual = 3.64935e-06, Final residual = 3.64935e-06, No Iterations 0
GAMG:  Solving for Uy, Initial residual = 6.95999e-06, Final residual = 6.95999e-06, No Iterations 0
GAMG:  Solving for Uz, Initial residual = 1.01374e-05, Final residual = 2.62369e-07, No Iterations 1
GAMG:  Solving for p, Initial residual = 1.73232e-05, Final residual = 1.40902e-06, No Iterations 1
time step continuity errors : sum local = 5.07503e-06, global = 2.19439e-08, cumulative = -1.89216e-05
ExecutionTime = 584.79 s  ClockTime = 587 s

Time = 345

GAMG:  Solving for Ux, Initial residual = 3.6319e-06, Final residual = 3.6319e-06, No Iterations 0
GAMG:  Solving for Uy, Initial residual = 6.90164e-06, Final residual = 6.90164e-06, No Iterations 0
GAMG:  Solving for Uz, Initial residual = 9.71957e-06, Final residual = 9.71957e-06, No Iterations 0
GAMG:  Solving for p, Initial residual = 1.7871e-05, Final residual = 2.69844e-06, No Iterations 1
time step continuity errors : sum local = 9.7193e-06, global = 4.29578e-08, cumulative = -1.88787e-05
ExecutionTime = 586.03 s  ClockTime = 588 s

Time = 346

GAMG:  Solving for Ux, Initial residual = 3.53991e-06, Final residual = 3.53991e-06, No Iterations 0
GAMG:  Solving for Uy, Initial residual = 6.84392e-06, Final residual = 6.84392e-06, No Iterations 0
GAMG:  Solving for Uz, Initial residual = 1.08212e-05, Final residual = 2.79922e-07, No Iterations 1
GAMG:  Solving for p, Initial residual = 1.716e-05, Final residual = 1.38047e-06, No Iterations 1
time step continuity errors : sum local = 4.97218e-06, global = 3.35165e-08, cumulative = -1.88451e-05
ExecutionTime = 587.23 s  ClockTime = 590 s

Time = 347

GAMG:  Solving for Ux, Initial residual = 3.52353e-06, Final residual = 3.52353e-06, No Iterations 0
GAMG:  Solving for Uy, Initial residual = 6.78645e-06, Final residual = 6.78645e-06, No Iterations 0
GAMG:  Solving for Uz, Initial residual = 1.0361e-05, Final residual = 2.66142e-07, No Iterations 1
GAMG:  Solving for p, Initial residual = 1.83819e-05, Final residual = 2.51026e-06, No Iterations 1
time step continuity errors : sum local = 9.04148e-06, global = 4.19303e-08, cumulative = -1.88032e-05
ExecutionTime = 588.43 s  ClockTime = 591 s

Time = 348

GAMG:  Solving for Ux, Initial residual = 3.55408e-06, Final residual = 3.55408e-06, No Iterations 0
GAMG:  Solving for Uy, Initial residual = 6.72918e-06, Final residual = 6.72918e-06, No Iterations 0
GAMG:  Solving for Uz, Initial residual = 9.08222e-06, Final residual = 9.08222e-06, No Iterations 0
GAMG:  Solving for p, Initial residual = 1.65658e-05, Final residual = 1.56043e-06, No Iterations 1
time step continuity errors : sum local = 5.62037e-06, global = 2.85278e-08, cumulative = -1.87747e-05
ExecutionTime = 589.63 s  ClockTime = 592 s

Time = 349

GAMG:  Solving for Ux, Initial residual = 3.50394e-06, Final residual = 3.50394e-06, No Iterations 0
GAMG:  Solving for Uy, Initial residual = 6.67155e-06, Final residual = 6.67155e-06, No Iterations 0
GAMG:  Solving for Uz, Initial residual = 9.41015e-06, Final residual = 9.41015e-06, No Iterations 0
GAMG:  Solving for p, Initial residual = 1.76826e-05, Final residual = 3.22603e-06, No Iterations 1
time step continuity errors : sum local = 1.16195e-05, global = 4.20808e-08, cumulative = -1.87326e-05
ExecutionTime = 590.79 s  ClockTime = 593 s

Time = 350

GAMG:  Solving for Ux, Initial residual = 3.38746e-06, Final residual = 3.38746e-06, No Iterations 0
GAMG:  Solving for Uy, Initial residual = 6.61525e-06, Final residual = 6.61525e-06, No Iterations 0
GAMG:  Solving for Uz, Initial residual = 1.08819e-05, Final residual = 2.81444e-07, No Iterations 1
GAMG:  Solving for p, Initial residual = 1.63423e-05, Final residual = 1.21741e-06, No Iterations 1
time step continuity errors : sum local = 4.38486e-06, global = 4.74039e-09, cumulative = -1.87279e-05
ExecutionTime = 592.05 s  ClockTime = 595 s

Time = 351

GAMG:  Solving for Ux, Initial residual = 3.35793e-06, Final residual = 3.35793e-06, No Iterations 0
GAMG:  Solving for Uy, Initial residual = 6.55674e-06, Final residual = 6.55674e-06, No Iterations 0
GAMG:  Solving for Uz, Initial residual = 1.05457e-05, Final residual = 2.70726e-07, No Iterations 1
GAMG:  Solving for p, Initial residual = 1.78556e-05, Final residual = 2.57492e-06, No Iterations 1
time step continuity errors : sum local = 9.27436e-06, global = 3.09818e-09, cumulative = -1.87248e-05
ExecutionTime = 593.35 s  ClockTime = 596 s

Time = 352

GAMG:  Solving for Ux, Initial residual = 3.38608e-06, Final residual = 3.38608e-06, No Iterations 0
GAMG:  Solving for Uy, Initial residual = 6.50062e-06, Final residual = 6.50062e-06, No Iterations 0
GAMG:  Solving for Uz, Initial residual = 9.20014e-06, Final residual = 9.20014e-06, No Iterations 0
GAMG:  Solving for p, Initial residual = 1.57257e-05, Final residual = 1.28471e-06, No Iterations 1
time step continuity errors : sum local = 4.62727e-06, global = -2.16107e-08, cumulative = -1.87464e-05
ExecutionTime = 596.23 s  ClockTime = 599 s

Time = 353

GAMG:  Solving for Ux, Initial residual = 3.34259e-06, Final residual = 3.34259e-06, No Iterations 0
GAMG:  Solving for Uy, Initial residual = 6.44297e-06, Final residual = 6.44297e-06, No Iterations 0
GAMG:  Solving for Uz, Initial residual = 9.32891e-06, Final residual = 9.32891e-06, No Iterations 0
GAMG:  Solving for p, Initial residual = 1.66284e-05, Final residual = 2.77233e-06, No Iterations 1
time step continuity errors : sum local = 9.98538e-06, global = -1.89813e-08, cumulative = -1.87654e-05
ExecutionTime = 597.32 s  ClockTime = 600 s

Time = 354

GAMG:  Solving for Ux, Initial residual = 3.23978e-06, Final residual = 3.23978e-06, No Iterations 0
GAMG:  Solving for Uy, Initial residual = 6.38825e-06, Final residual = 6.38825e-06, No Iterations 0
GAMG:  Solving for Uz, Initial residual = 1.04959e-05, Final residual = 2.70341e-07, No Iterations 1
GAMG:  Solving for p, Initial residual = 1.56709e-05, Final residual = 1.21289e-06, No Iterations 1
time step continuity errors : sum local = 4.36858e-06, global = -4.38397e-08, cumulative = -1.88092e-05
ExecutionTime = 598.43 s  ClockTime = 601 s

Time = 355

GAMG:  Solving for Ux, Initial residual = 3.21624e-06, Final residual = 3.21624e-06, No Iterations 0
GAMG:  Solving for Uy, Initial residual = 6.33359e-06, Final residual = 6.33359e-06, No Iterations 0
GAMG:  Solving for Uz, Initial residual = 1.00265e-05, Final residual = 2.56706e-07, No Iterations 1
GAMG:  Solving for p, Initial residual = 1.72731e-05, Final residual = 2.68285e-06, No Iterations 1
time step continuity errors : sum local = 9.66306e-06, global = -5.56781e-08, cumulative = -1.88649e-05
ExecutionTime = 600.31 s  ClockTime = 603 s

Time = 356

GAMG:  Solving for Ux, Initial residual = 3.2504e-06, Final residual = 3.2504e-06, No Iterations 0
GAMG:  Solving for Uy, Initial residual = 6.27971e-06, Final residual = 6.27971e-06, No Iterations 0
GAMG:  Solving for Uz, Initial residual = 8.59243e-06, Final residual = 8.59243e-06, No Iterations 0
GAMG:  Solving for p, Initial residual = 1.51437e-05, Final residual = 1.19172e-06, No Iterations 1
time step continuity errors : sum local = 4.29232e-06, global = -6.31691e-08, cumulative = -1.8928e-05
ExecutionTime = 601.52 s  ClockTime = 604 s

Time = 357

GAMG:  Solving for Ux, Initial residual = 3.21315e-06, Final residual = 3.21315e-06, No Iterations 0
GAMG:  Solving for Uy, Initial residual = 6.2264e-06, Final residual = 6.2264e-06, No Iterations 0
GAMG:  Solving for Uz, Initial residual = 8.6383e-06, Final residual = 8.6383e-06, No Iterations 0
GAMG:  Solving for p, Initial residual = 1.59724e-05, Final residual = 2.63247e-06, No Iterations 1
time step continuity errors : sum local = 9.48161e-06, global = -5.36126e-08, cumulative = -1.89817e-05
ExecutionTime = 602.69 s  ClockTime = 605 s

Time = 358

GAMG:  Solving for Ux, Initial residual = 3.11794e-06, Final residual = 3.11794e-06, No Iterations 0
GAMG:  Solving for Uy, Initial residual = 6.17437e-06, Final residual = 6.17437e-06, No Iterations 0
GAMG:  Solving for Uz, Initial residual = 9.70982e-06, Final residual = 9.70982e-06, No Iterations 0
GAMG:  Solving for p, Initial residual = 1.68876e-05, Final residual = 3.6639e-06, No Iterations 1
time step continuity errors : sum local = 1.31966e-05, global = -3.97861e-08, cumulative = -1.90214e-05
ExecutionTime = 603.97 s  ClockTime = 607 s

Time = 359

GAMG:  Solving for Ux, Initial residual = 2.98521e-06, Final residual = 2.98521e-06, No Iterations 0
GAMG:  Solving for Uy, Initial residual = 6.12325e-06, Final residual = 6.12325e-06, No Iterations 0
GAMG:  Solving for Uz, Initial residual = 1.1496e-05, Final residual = 2.98689e-07, No Iterations 1
GAMG:  Solving for p, Initial residual = 1.5636e-05, Final residual = 1.37465e-06, No Iterations 1
time step continuity errors : sum local = 4.95118e-06, global = -6.33094e-08, cumulative = -1.90848e-05
ExecutionTime = 605.41 s  ClockTime = 608 s

Time = 360

GAMG:  Solving for Ux, Initial residual = 2.96698e-06, Final residual = 2.96698e-06, No Iterations 0
GAMG:  Solving for Uy, Initial residual = 6.07425e-06, Final residual = 6.07425e-06, No Iterations 0
GAMG:  Solving for Uz, Initial residual = 1.09103e-05, Final residual = 2.79432e-07, No Iterations 1
GAMG:  Solving for p, Initial residual = 1.80784e-05, Final residual = 3.63402e-06, No Iterations 1
time step continuity errors : sum local = 1.30889e-05, global = -4.8094e-08, cumulative = -1.91328e-05
ExecutionTime = 606.63 s  ClockTime = 609 s

Time = 361

GAMG:  Solving for Ux, Initial residual = 3.03351e-06, Final residual = 3.03351e-06, No Iterations 0
GAMG:  Solving for Uy, Initial residual = 6.02373e-06, Final residual = 6.02373e-06, No Iterations 0
GAMG:  Solving for Uz, Initial residual = 8.913e-06, Final residual = 8.913e-06, No Iterations 0
GAMG:  Solving for p, Initial residual = 1.49628e-05, Final residual = 1.60262e-06, No Iterations 1
time step continuity errors : sum local = 5.7723e-06, global = -4.16782e-08, cumulative = -1.91745e-05
ExecutionTime = 607.68 s  ClockTime = 610 s

Time = 362

GAMG:  Solving for Ux, Initial residual = 3.02695e-06, Final residual = 3.02695e-06, No Iterations 0
GAMG:  Solving for Uy, Initial residual = 5.97341e-06, Final residual = 5.97341e-06, No Iterations 0
GAMG:  Solving for Uz, Initial residual = 8.49179e-06, Final residual = 8.49179e-06, No Iterations 0
GAMG:  Solving for p, Initial residual = 1.43696e-05, Final residual = 1.56921e-06, No Iterations 1
time step continuity errors : sum local = 5.65194e-06, global = -1.33629e-08, cumulative = -1.91879e-05
ExecutionTime = 608.72 s  ClockTime = 611 s

Time = 363

GAMG:  Solving for Ux, Initial residual = 2.9733e-06, Final residual = 2.9733e-06, No Iterations 0
GAMG:  Solving for Uy, Initial residual = 5.92416e-06, Final residual = 5.92416e-06, No Iterations 0
GAMG:  Solving for Uz, Initial residual = 8.88981e-06, Final residual = 8.88981e-06, No Iterations 0
GAMG:  Solving for p, Initial residual = 1.52381e-05, Final residual = 2.82881e-06, No Iterations 1
time step continuity errors : sum local = 1.01887e-05, global = 1.60411e-08, cumulative = -1.91718e-05
ExecutionTime = 609.78 s  ClockTime = 612 s

Time = 364

GAMG:  Solving for Ux, Initial residual = 2.87473e-06, Final residual = 2.87473e-06, No Iterations 0
GAMG:  Solving for Uy, Initial residual = 5.87548e-06, Final residual = 5.87548e-06, No Iterations 0
GAMG:  Solving for Uz, Initial residual = 1.01186e-05, Final residual = 2.58425e-07, No Iterations 1
GAMG:  Solving for p, Initial residual = 1.41733e-05, Final residual = 1.17595e-06, No Iterations 1
time step continuity errors : sum local = 4.23551e-06, global = 2.16191e-08, cumulative = -1.91502e-05
ExecutionTime = 610.87 s  ClockTime = 613 s

Time = 365

GAMG:  Solving for Ux, Initial residual = 2.86052e-06, Final residual = 2.86052e-06, No Iterations 0
GAMG:  Solving for Uy, Initial residual = 5.82741e-06, Final residual = 5.82741e-06, No Iterations 0
GAMG:  Solving for Uz, Initial residual = 9.61723e-06, Final residual = 9.61723e-06, No Iterations 0
GAMG:  Solving for p, Initial residual = 1.38774e-05, Final residual = 1.57224e-06, No Iterations 1
time step continuity errors : sum local = 5.66285e-06, global = 5.33997e-08, cumulative = -1.90968e-05
ExecutionTime = 611.93 s  ClockTime = 615 s

Time = 366

GAMG:  Solving for Ux, Initial residual = 2.81375e-06, Final residual = 2.81375e-06, No Iterations 0
GAMG:  Solving for Uy, Initial residual = 5.77975e-06, Final residual = 5.77975e-06, No Iterations 0
GAMG:  Solving for Uz, Initial residual = 9.9604e-06, Final residual = 9.9604e-06, No Iterations 0
GAMG:  Solving for p, Initial residual = 1.4359e-05, Final residual = 2.34473e-06, No Iterations 1
time step continuity errors : sum local = 8.44518e-06, global = 8.18004e-08, cumulative = -1.9015e-05
ExecutionTime = 613 s  ClockTime = 616 s

Time = 367

GAMG:  Solving for Ux, Initial residual = 2.73677e-06, Final residual = 2.73677e-06, No Iterations 0
GAMG:  Solving for Uy, Initial residual = 5.73289e-06, Final residual = 5.73289e-06, No Iterations 0
GAMG:  Solving for Uz, Initial residual = 1.08889e-05, Final residual = 2.79441e-07, No Iterations 1
GAMG:  Solving for p, Initial residual = 1.4942e-05, Final residual = 2.07149e-06, No Iterations 1
time step continuity errors : sum local = 7.46103e-06, global = 8.4045e-08, cumulative = -1.8931e-05
ExecutionTime = 614.09 s  ClockTime = 617 s

Time = 368

GAMG:  Solving for Ux, Initial residual = 2.75834e-06, Final residual = 2.75834e-06, No Iterations 0
GAMG:  Solving for Uy, Initial residual = 5.6874e-06, Final residual = 5.6874e-06, No Iterations 0
GAMG:  Solving for Uz, Initial residual = 9.73878e-06, Final residual = 9.73878e-06, No Iterations 0
GAMG:  Solving for p, Initial residual = 1.31772e-05, Final residual = 1.02825e-06, No Iterations 1
time step continuity errors : sum local = 3.7035e-06, global = 8.5145e-08, cumulative = -1.88458e-05
ExecutionTime = 615.15 s  ClockTime = 618 s

Time = 369

GAMG:  Solving for Ux, Initial residual = 2.73935e-06, Final residual = 2.73935e-06, No Iterations 0
GAMG:  Solving for Uy, Initial residual = 5.6413e-06, Final residual = 5.6413e-06, No Iterations 0
GAMG:  Solving for Uz, Initial residual = 9.58453e-06, Final residual = 9.58453e-06, No Iterations 0
GAMG:  Solving for p, Initial residual = 1.31376e-05, Final residual = 1.48369e-06, No Iterations 1
time step continuity errors : sum local = 5.34388e-06, global = 1.01333e-07, cumulative = -1.87445e-05
ExecutionTime = 616.22 s  ClockTime = 619 s

Time = 370

GAMG:  Solving for Ux, Initial residual = 2.69153e-06, Final residual = 2.69153e-06, No Iterations 0
GAMG:  Solving for Uy, Initial residual = 5.5958e-06, Final residual = 5.5958e-06, No Iterations 0
GAMG:  Solving for Uz, Initial residual = 9.97237e-06, Final residual = 9.97237e-06, No Iterations 0
